%chk=f00019600.chk
%mem=24GB
%nproc=12
#p b3lyp/6-31G*

title

0 1
Ti	2.81187400	0.19704000	1.10336000
Ti	0.90594400	5.44057000	1.10336000
Ti	4.71781400	5.44057000	1.10336000
Ti	0.90594400	2.47241000	1.99114000
Ti	4.71781400	2.47241000	1.99114000
Ti	2.81187400	7.71594000	1.99115000
O	2.81187400	8.81302000	0.37332000
O	0.90594400	3.56949000	0.37332000
O	4.71781400	3.56949000	0.37332000
O	0.90594400	0.60134000	1.26110000
O	4.71781400	0.60134000	1.26110000
O	2.81187400	5.84486000	1.26111000
O	2.81187400	2.06812000	1.83340000
O	0.90594400	7.31164000	1.83340000
O	4.71781400	7.31164000	1.83340000
O	0.90594400	4.34349000	2.72118000
O	4.71781400	4.34349000	2.72118000
O	2.81187400	9.58701000	2.72118000
Ti	6.62374588	0.19704000	1.10336000
Ti	21.87123776	0.19704000	1.10336000
Ti	8.52968588	5.44057000	1.10336000
Ti	23.77717776	5.44057000	1.10336000
Ti	8.52968588	2.47241000	1.99114000
Ti	23.77717776	2.47241000	1.99114000
Ti	6.62374588	7.71594000	1.99115000
Ti	21.87123776	7.71594000	1.99115000
Ti	10.43561588	0.19704000	1.10336000
Ti	25.68310776	0.19704000	1.10336000
Ti	14.24749588	0.19704000	1.10336000
Ti	29.49498776	0.19704000	1.10336000
Ti	18.05936588	0.19704000	1.10336000
Ti	12.34155588	5.44057000	1.10336000
Ti	27.58904776	5.44057000	1.10336000
Ti	16.15343588	5.44057000	1.10336000
Ti	19.96530588	5.44057000	1.10336000
Ti	12.34155588	2.47241000	1.99114000
Ti	27.58904776	2.47241000	1.99114000
Ti	16.15343588	2.47241000	1.99114000
Ti	19.96530588	2.47241000	1.99114000
Ti	10.43561588	7.71594000	1.99115000
Ti	25.68310776	7.71594000	1.99115000
Ti	14.24749588	7.71594000	1.99115000
Ti	29.49498776	7.71594000	1.99115000
Ti	18.05936588	7.71594000	1.99115000
O	6.62374588	8.81302000	0.37332000
O	21.87123776	8.81302000	0.37332000
O	8.52968588	3.56949000	0.37332000
O	23.77717776	3.56949000	0.37332000
O	8.52968588	0.60134000	1.26110000
O	23.77717776	0.60134000	1.26110000
O	6.62374588	5.84486000	1.26111000
O	21.87123776	5.84486000	1.26111000
O	6.62374588	2.06812000	1.83340000
O	21.87123776	2.06812000	1.83340000
O	8.52968588	7.31164000	1.83340000
O	23.77717776	7.31164000	1.83340000
O	8.52968588	4.34349000	2.72118000
O	23.77717776	4.34349000	2.72118000
O	6.62374588	9.58701000	2.72118000
O	21.87123776	9.58701000	2.72118000
O	10.43561588	8.81302000	0.37332000
O	25.68310776	8.81302000	0.37332000
O	14.24749588	8.81302000	0.37332000
O	29.49498776	8.81302000	0.37332000
O	18.05936588	8.81302000	0.37332000
O	12.34155588	3.56949000	0.37332000
O	27.58904776	3.56949000	0.37332000
O	16.15343588	3.56949000	0.37332000
O	19.96530588	3.56949000	0.37332000
O	12.34155588	0.60134000	1.26110000
O	27.58904776	0.60134000	1.26110000
O	16.15343588	0.60134000	1.26110000
O	19.96530588	0.60134000	1.26110000
O	10.43561588	5.84486000	1.26111000
O	25.68310776	5.84486000	1.26111000
O	14.24749588	5.84486000	1.26111000
O	29.49498776	5.84486000	1.26111000
O	18.05936588	5.84486000	1.26111000
O	10.43561588	2.06812000	1.83340000
O	25.68310776	2.06812000	1.83340000
O	14.24749588	2.06812000	1.83340000
O	29.49498776	2.06812000	1.83340000
O	18.05936588	2.06812000	1.83340000
O	12.34155588	7.31164000	1.83340000
O	27.58904776	7.31164000	1.83340000
O	16.15343588	7.31164000	1.83340000
O	19.96530588	7.31164000	1.83340000
O	12.34155588	4.34349000	2.72118000
O	27.58904776	4.34349000	2.72118000
O	16.15343588	4.34349000	2.72118000
O	19.96530588	4.34349000	2.72118000
O	10.43561588	9.58701000	2.72118000
O	25.68310776	9.58701000	2.72118000
O	14.24749588	9.58701000	2.72118000
O	29.49498776	9.58701000	2.72118000
O	18.05936588	9.58701000	2.72118000
Ti	2.81187400	10.68408607	1.10336000
Ti	2.81187400	21.17113214	1.10336000
Ti	0.90594400	15.92761607	1.10336000
Ti	0.90594400	26.41466214	1.10336000
Ti	4.71781400	15.92761607	1.10336000
Ti	4.71781400	26.41466214	1.10336000
Ti	0.90594400	12.95945607	1.99114000
Ti	0.90594400	23.44650214	1.99114000
Ti	4.71781400	12.95945607	1.99114000
Ti	4.71781400	23.44650214	1.99114000
Ti	2.81187400	18.20298607	1.99115000
Ti	2.81187400	28.69003214	1.99115000
O	2.81187400	19.30006607	0.37332000
O	2.81187400	29.78711214	0.37332000
O	0.90594400	14.05653607	0.37332000
O	0.90594400	24.54358214	0.37332000
O	4.71781400	14.05653607	0.37332000
O	4.71781400	24.54358214	0.37332000
O	0.90594400	11.08838607	1.26110000
O	0.90594400	21.57543214	1.26110000
O	4.71781400	11.08838607	1.26110000
O	4.71781400	21.57543214	1.26110000
O	2.81187400	16.33190607	1.26111000
O	2.81187400	26.81895214	1.26111000
O	2.81187400	12.55516607	1.83340000
O	2.81187400	23.04221214	1.83340000
O	0.90594400	17.79868607	1.83340000
O	0.90594400	28.28573214	1.83340000
O	4.71781400	17.79868607	1.83340000
O	4.71781400	28.28573214	1.83340000
O	0.90594400	14.83053607	2.72118000
O	0.90594400	25.31758214	2.72118000
O	4.71781400	14.83053607	2.72118000
O	4.71781400	25.31758214	2.72118000
O	2.81187400	20.07405607	2.72118000
O	2.81187400	30.56110214	2.72118000
Ti	6.62374588	10.68408607	1.10336000
Ti	6.62374588	21.17113214	1.10336000
Ti	21.87123776	10.68408607	1.10336000
Ti	21.87123776	21.17113214	1.10336000
Ti	8.52968588	15.92761607	1.10336000
Ti	8.52968588	26.41466214	1.10336000
Ti	23.77717776	15.92761607	1.10336000
Ti	23.77717776	26.41466214	1.10336000
Ti	8.52968588	12.95945607	1.99114000
Ti	8.52968588	23.44650214	1.99114000
Ti	23.77717776	12.95945607	1.99114000
Ti	23.77717776	23.44650214	1.99114000
Ti	6.62374588	18.20298607	1.99115000
Ti	6.62374588	28.69003214	1.99115000
Ti	21.87123776	18.20298607	1.99115000
Ti	21.87123776	28.69003214	1.99115000
Ti	10.43561588	10.68408607	1.10336000
Ti	10.43561588	21.17113214	1.10336000
Ti	25.68310776	10.68408607	1.10336000
Ti	25.68310776	21.17113214	1.10336000
Ti	14.24749588	10.68408607	1.10336000
Ti	14.24749588	21.17113214	1.10336000
Ti	29.49498776	10.68408607	1.10336000
Ti	29.49498776	21.17113214	1.10336000
Ti	18.05936588	10.68408607	1.10336000
Ti	18.05936588	21.17113214	1.10336000
Ti	12.34155588	15.92761607	1.10336000
Ti	12.34155588	26.41466214	1.10336000
Ti	27.58904776	15.92761607	1.10336000
Ti	27.58904776	26.41466214	1.10336000
Ti	16.15343588	15.92761607	1.10336000
Ti	16.15343588	26.41466214	1.10336000
Ti	19.96530588	15.92761607	1.10336000
Ti	19.96530588	26.41466214	1.10336000
Ti	12.34155588	12.95945607	1.99114000
Ti	12.34155588	23.44650214	1.99114000
Ti	27.58904776	12.95945607	1.99114000
Ti	27.58904776	23.44650214	1.99114000
Ti	16.15343588	12.95945607	1.99114000
Ti	16.15343588	23.44650214	1.99114000
Ti	19.96530588	12.95945607	1.99114000
Ti	19.96530588	23.44650214	1.99114000
Ti	10.43561588	18.20298607	1.99115000
Ti	10.43561588	28.69003214	1.99115000
Ti	25.68310776	18.20298607	1.99115000
Ti	25.68310776	28.69003214	1.99115000
Ti	14.24749588	18.20298607	1.99115000
Ti	14.24749588	28.69003214	1.99115000
Ti	29.49498776	18.20298607	1.99115000
Ti	29.49498776	28.69003214	1.99115000
Ti	18.05936588	18.20298607	1.99115000
Ti	18.05936588	28.69003214	1.99115000
O	6.62374588	19.30006607	0.37332000
O	6.62374588	29.78711214	0.37332000
O	21.87123776	19.30006607	0.37332000
O	21.87123776	29.78711214	0.37332000
O	8.52968588	14.05653607	0.37332000
O	8.52968588	24.54358214	0.37332000
O	23.77717776	14.05653607	0.37332000
O	23.77717776	24.54358214	0.37332000
O	8.52968588	11.08838607	1.26110000
O	8.52968588	21.57543214	1.26110000
O	23.77717776	11.08838607	1.26110000
O	23.77717776	21.57543214	1.26110000
O	6.62374588	16.33190607	1.26111000
O	6.62374588	26.81895214	1.26111000
O	21.87123776	16.33190607	1.26111000
O	21.87123776	26.81895214	1.26111000
O	6.62374588	12.55516607	1.83340000
O	6.62374588	23.04221214	1.83340000
O	21.87123776	12.55516607	1.83340000
O	21.87123776	23.04221214	1.83340000
O	8.52968588	17.79868607	1.83340000
O	8.52968588	28.28573214	1.83340000
O	23.77717776	17.79868607	1.83340000
O	23.77717776	28.28573214	1.83340000
O	8.52968588	14.83053607	2.72118000
O	8.52968588	25.31758214	2.72118000
O	23.77717776	14.83053607	2.72118000
O	23.77717776	25.31758214	2.72118000
O	6.62374588	20.07405607	2.72118000
O	6.62374588	30.56110214	2.72118000
O	21.87123776	20.07405607	2.72118000
O	21.87123776	30.56110214	2.72118000
O	10.43561588	19.30006607	0.37332000
O	10.43561588	29.78711214	0.37332000
O	25.68310776	19.30006607	0.37332000
O	25.68310776	29.78711214	0.37332000
O	14.24749588	19.30006607	0.37332000
O	14.24749588	29.78711214	0.37332000
O	29.49498776	19.30006607	0.37332000
O	29.49498776	29.78711214	0.37332000
O	18.05936588	19.30006607	0.37332000
O	18.05936588	29.78711214	0.37332000
O	12.34155588	14.05653607	0.37332000
O	12.34155588	24.54358214	0.37332000
O	27.58904776	14.05653607	0.37332000
O	27.58904776	24.54358214	0.37332000
O	16.15343588	14.05653607	0.37332000
O	16.15343588	24.54358214	0.37332000
O	19.96530588	14.05653607	0.37332000
O	19.96530588	24.54358214	0.37332000
O	12.34155588	11.08838607	1.26110000
O	12.34155588	21.57543214	1.26110000
O	27.58904776	11.08838607	1.26110000
O	27.58904776	21.57543214	1.26110000
O	16.15343588	11.08838607	1.26110000
O	16.15343588	21.57543214	1.26110000
O	19.96530588	11.08838607	1.26110000
O	19.96530588	21.57543214	1.26110000
O	10.43561588	16.33190607	1.26111000
O	10.43561588	26.81895214	1.26111000
O	25.68310776	16.33190607	1.26111000
O	25.68310776	26.81895214	1.26111000
O	14.24749588	16.33190607	1.26111000
O	14.24749588	26.81895214	1.26111000
O	29.49498776	16.33190607	1.26111000
O	29.49498776	26.81895214	1.26111000
O	18.05936588	16.33190607	1.26111000
O	18.05936588	26.81895214	1.26111000
O	10.43561588	12.55516607	1.83340000
O	10.43561588	23.04221214	1.83340000
O	25.68310776	12.55516607	1.83340000
O	25.68310776	23.04221214	1.83340000
O	14.24749588	12.55516607	1.83340000
O	14.24749588	23.04221214	1.83340000
O	29.49498776	12.55516607	1.83340000
O	29.49498776	23.04221214	1.83340000
O	18.05936588	12.55516607	1.83340000
O	18.05936588	23.04221214	1.83340000
O	12.34155588	17.79868607	1.83340000
O	12.34155588	28.28573214	1.83340000
O	27.58904776	17.79868607	1.83340000
O	27.58904776	28.28573214	1.83340000
O	16.15343588	17.79868607	1.83340000
O	16.15343588	28.28573214	1.83340000
O	19.96530588	17.79868607	1.83340000
O	19.96530588	28.28573214	1.83340000
O	12.34155588	14.83053607	2.72118000
O	12.34155588	25.31758214	2.72118000
O	27.58904776	14.83053607	2.72118000
O	27.58904776	25.31758214	2.72118000
O	16.15343588	14.83053607	2.72118000
O	16.15343588	25.31758214	2.72118000
O	19.96530588	14.83053607	2.72118000
O	19.96530588	25.31758214	2.72118000
O	10.43561588	20.07405607	2.72118000
O	10.43561588	30.56110214	2.72118000
O	25.68310776	20.07405607	2.72118000
O	25.68310776	30.56110214	2.72118000
O	14.24749588	20.07405607	2.72118000
O	14.24749588	30.56110214	2.72118000
O	29.49498776	20.07405607	2.72118000
O	29.49498776	30.56110214	2.72118000
O	18.05936588	20.07405607	2.72118000
O	18.05936588	30.56110214	2.72118000
Ti	6.49176918	9.27472525	4.76257496
Ti	6.64882877	6.32944432	5.49599778
Ti	2.81552061	9.27848133	4.82805501
Ti	0.97198316	4.01626145	4.72542919
Ti	4.74095187	4.00188874	4.76902526
Ti	0.98734731	0.96241117	5.43843370
Ti	4.72381276	1.03392402	5.57760559
Ti	2.86057668	6.45400693	5.53566271
O	6.77355684	7.29040436	3.96995450
O	6.60819717	4.40829449	4.75384777
O	6.67550962	0.52365542	5.90705667
O	6.73887599	8.13481955	6.43209651
O	2.74035060	7.45556479	3.91467621
O	1.02765486	1.98335867	3.88569862
O	4.73172483	2.04031534	3.95144211
O	0.91699075	9.58328538	4.92107365
O	4.60244463	9.66462695	4.75792636
O	2.85163574	4.62976199	4.70351899
O	2.85654378	0.42434918	5.82528685
O	0.97817796	5.86542738	5.92231183
O	4.75213728	5.94130052	5.65025879
O	0.89586626	2.70402449	6.27410498
O	4.55644464	2.93631798	6.33072684
O	2.77309477	8.19936347	6.37785578
Ti	21.90501385	9.25531791	4.69533277
Ti	8.56391342	4.06237601	4.86438769
Ti	23.77998189	4.09907274	4.71387393
Ti	8.52008513	1.00559700	5.48223855
Ti	23.78987100	1.16690245	5.50756722
Ti	21.92292892	6.35444089	5.49053615
Ti	10.45252058	9.24915416	4.78202852
Ti	25.76225844	9.21424910	4.76352446
Ti	14.26082724	9.26237964	4.72355688
Ti	29.54417753	9.23854963	4.68837694
Ti	18.03376750	9.31688196	4.76112925
Ti	12.37887693	4.09968105	4.75026116
Ti	27.67275944	3.97838610	4.78284146
Ti	16.15537412	4.07078354	4.70180642
Ti	19.97221991	3.95925022	4.69331435
Ti	12.35387441	1.11113267	5.58756557
Ti	27.68091159	1.01171622	5.49389676
Ti	16.01286605	1.15648535	5.68803751
Ti	19.91346918	1.04071554	5.52206077
Ti	10.55990591	6.33588028	5.51356217
Ti	25.79935410	6.34241420	5.51702301
Ti	14.32958768	6.31397154	5.37612218
Ti	29.63209872	6.29165308	5.50616296
Ti	18.14655877	6.41611436	5.45974463
O	21.88589213	7.39662319	3.87475952
O	8.62021074	2.10963577	3.93215099
O	23.85302920	2.15030170	3.90269072
O	8.41658725	9.79967857	4.67973983
O	23.81191867	9.49397530	4.85990794
O	21.89279712	4.50821582	4.62206739
O	21.87494427	0.65052281	5.68115121
O	8.52990438	5.77242171	5.99530917
O	23.77132810	5.92112791	5.68967786
O	8.56937468	2.75929673	6.39135433
O	23.78269355	2.87008702	6.24392432
O	21.82082370	8.17522980	6.34842192
O	10.45631793	7.39063071	3.93298751
O	25.64761772	7.35995677	3.95381891
O	14.41980975	7.42635261	3.90620946
O	29.53610083	7.30633566	3.99239369
O	18.00371185	7.42311959	3.92691908
O	12.41262394	2.15279394	4.00779085
O	27.62399013	2.09563591	3.93990733
O	15.97089721	2.03425656	3.97902475
O	19.88967933	2.14138449	3.96690079
O	12.31626676	9.61727468	4.78922958
O	27.62752217	9.76213211	4.69959090
O	16.12620262	9.64866009	4.71758667
O	19.96678774	9.77429981	4.72539327
O	10.41720435	4.47106884	4.80445647
O	25.80124389	4.46604313	4.77624971
O	14.23637206	4.49080453	4.64099794
O	29.57754500	4.45839422	4.67583607
O	18.10288233	4.43426124	4.76948171
O	10.43347011	0.58740668	5.67510333
O	25.80511043	0.67119541	5.82758872
O	14.20590094	0.99454946	6.41852903
O	29.57705202	0.49769176	5.78719263
O	17.98025115	0.55207321	5.92117415
O	12.39041571	5.94177292	5.80080151
O	27.68864447	5.80124140	5.85685034
O	16.24840136	5.83134838	5.72420393
O	19.94304129	5.81809647	5.69627440
O	12.26248863	3.02086168	6.40484047
O	27.85663322	2.63548117	6.45263820
O	16.26337798	3.01340891	6.42186198
O	20.01670642	2.76772697	6.42423477
O	10.25278061	8.13468424	6.36948765
O	25.82175482	8.04737219	6.39574451
O	14.23257165	8.07871303	6.31431619
O	29.32905067	8.04491851	6.39776283
O	18.23300561	8.19347882	6.31163083
Ti	6.66756431	19.71510348	4.80106695
Ti	6.68170949	30.17067088	4.67897775
Ti	6.49039783	16.75800648	5.44180399
Ti	6.59329900	27.34582271	5.53636148
Ti	2.94423232	19.87153022	4.68255939
Ti	2.90856020	30.20358241	4.60639346
Ti	0.78102844	14.37612184	4.65166233
Ti	0.96576072	24.87823429	4.66089605
Ti	4.51092928	14.54428714	4.88195603
Ti	4.67671055	24.94673762	4.82861587
Ti	0.82895071	11.52676637	5.50410413
Ti	0.91855862	22.01555498	5.53386230
Ti	4.69128744	11.62053708	5.46830431
Ti	4.79843042	22.05546094	5.50130304
Ti	2.72912571	16.89769434	5.56590490
Ti	2.82086411	27.36383233	5.47291100
O	6.65088441	17.93882129	3.92273188
O	6.70583889	28.32922059	3.93715879
O	6.42809685	14.91885816	4.82251530
O	6.46871125	25.49421454	4.67217481
O	6.49760898	11.08996327	5.61129750
O	6.71357888	21.46022952	5.99459337
O	6.78510250	18.60086736	6.43813839
O	6.39213140	29.08414579	6.31160359
O	2.81942273	17.78797387	3.95833361
O	2.75999579	28.33012939	3.94685124
O	0.82792551	12.54415160	3.91264949
O	0.90668210	23.01103990	3.91948362
O	4.53461806	12.73159331	3.92797968
O	4.68985456	23.10178997	3.93770895
O	0.95726634	20.15404438	4.82915832
O	0.93790716	30.57953882	4.71631427
O	4.76195286	20.21259673	4.73020582
O	4.76147554	30.69066472	4.65784824
O	2.56596228	14.92470750	4.86677327
O	2.81470126	25.40884070	4.76438312
O	2.82430421	11.03894608	5.87180726
O	2.84064775	21.65453346	5.69063436
O	0.91203982	16.82561228	6.19150858
O	1.02696178	26.68183278	5.75947710
O	4.57085630	16.40821357	5.73669650
O	4.68305747	26.78647158	5.92704511
O	0.87121473	13.24185289	6.29121146
O	1.02868118	23.72144547	6.41123164
O	4.64506305	13.36672423	6.31871195
O	4.90538054	23.73049629	6.40761828
O	2.80072933	18.71071350	6.32034291
O	2.95018106	29.12624792	6.34078652
Ti	21.96746600	19.71648659	4.75504432
Ti	21.96484285	30.32102045	4.72400927
Ti	8.36620498	14.48094015	4.73506322
Ti	8.36474310	24.95145412	4.84731648
Ti	23.80939563	14.45347321	4.89212320
Ti	23.79823737	24.96138455	4.81340721
Ti	8.46237780	11.59747083	5.49492159
Ti	8.57123965	21.96941516	5.55892092
Ti	23.89784744	11.44394299	5.39907614
Ti	23.78627269	22.04951525	5.50847399
Ti	21.91908509	16.82400193	5.50582794
Ti	21.87576745	27.29429779	5.46178707
Ti	10.50195422	19.68990701	4.81943304
Ti	10.55064064	30.25699999	4.88075823
Ti	25.65482868	19.74205618	4.78463735
Ti	25.68525150	30.15973189	4.86578563
Ti	14.24003006	19.68062226	4.80631771
Ti	14.18932230	30.11999137	4.69395687
Ti	29.53082619	19.74027206	4.75965353
Ti	29.52607336	30.11085166	4.78193567
Ti	18.17736255	19.72726323	4.66282750
Ti	17.97433150	30.17541801	4.75827334
Ti	12.30170524	14.45307778	4.62186375
Ti	12.25177071	24.94142841	4.71322336
Ti	27.61178743	14.50193923	4.82371663
Ti	27.53670358	25.05152258	4.71936882
Ti	16.25547836	14.44268939	4.67978578
Ti	16.16699062	24.93397192	4.79143806
Ti	20.00236894	14.53126010	4.83108069
Ti	20.00391101	24.95221117	4.70719421
Ti	12.37381367	11.58182567	5.42697944
Ti	12.32085832	22.05412777	5.47158856
Ti	27.56021881	11.60605479	5.62764452
Ti	27.54877837	22.03620756	5.51636720
Ti	16.04925151	11.58257248	5.49416591
Ti	16.13146883	21.99996193	5.38943294
Ti	20.00724298	11.58645476	5.48784716
Ti	20.02565578	22.00030360	5.51228750
Ti	10.35025728	16.75313090	5.52641173
Ti	10.36839542	27.33094307	5.48623063
Ti	25.62340736	16.82247456	5.49345591
Ti	25.68445112	27.27002186	5.52687542
Ti	14.11923077	16.66987440	5.73610263
Ti	14.27411069	27.26390175	5.56940680
Ti	29.44780461	16.90504306	5.64075153
Ti	29.54429759	27.20663852	5.47228982
Ti	18.04118573	16.78483032	5.49811301
Ti	18.04478815	27.30875710	5.57159413
O	21.90513788	17.82412328	3.95015858
O	21.74899900	28.16594636	3.91012823
O	8.49225232	12.67232861	3.93932670
O	8.46701621	23.07000380	3.99968875
O	23.88129744	12.62004659	3.93146330
O	23.84622485	23.13815982	3.92979339
O	8.59191521	20.24737408	4.60064743
O	8.56670498	30.54457221	4.86261144
O	23.80515434	20.35005153	4.65611766
O	23.85933151	30.88640395	4.56471269
O	21.92240976	14.83109295	4.75573521
O	21.90117285	25.34635823	4.78901515
O	22.00815319	11.04458860	5.63138842
O	21.94896829	21.72173788	5.98119591
O	8.35757797	16.33978660	5.73685598
O	8.46701228	26.91279815	5.70915580
O	23.78607733	16.25841833	6.01023371
O	23.71271723	26.82038625	5.90309625
O	8.32293404	13.36899298	6.34570503
O	8.45797606	23.70751973	6.39396918
O	23.86823482	13.23239841	6.32370191
O	24.05936708	23.85550420	6.44958622
O	21.97906379	18.54201501	6.35069360
O	21.86137156	29.04478385	6.28155917
O	10.36208745	17.83850881	3.90500349
O	10.44287040	28.46409201	3.94477651
O	25.72506234	17.88806458	3.94687368
O	25.75200200	28.33615670	3.95633642
O	14.24323139	17.76531792	3.93791239
O	14.18363964	28.27006315	4.08692183
O	29.59042818	17.88885490	3.97831971
O	29.64878372	28.26197395	3.93550664
O	17.85889255	17.87231891	3.88220635
O	17.86813229	28.30023078	4.00590907
O	12.58777449	12.62911242	3.88932685
O	12.19312583	23.04306040	3.89377556
O	27.69665007	12.66785180	4.01050495
O	27.56216479	23.08722821	3.93834263
O	16.02525457	12.57975838	3.90683437
O	16.17722177	23.03193606	3.91396483
O	19.98400518	12.67800251	3.91839871
O	20.00908680	23.07712517	3.93848469
O	12.31702572	20.16058082	4.83905585
O	12.41960988	30.86539630	4.70504215
O	27.56368123	20.11201592	4.91818384
O	27.52750416	30.61697828	4.77382557
O	16.15694683	19.98189823	4.85783964
O	16.06166867	30.76919283	4.92731284
O	20.11006133	20.12903976	4.84929323
O	20.05210232	30.52551841	4.91526597
O	10.26372605	14.93449401	4.73171143
O	10.31968236	25.49983445	4.89024941
O	25.70299417	14.89095924	4.75826777
O	25.63308324	25.51944746	4.76772217
O	14.25914046	14.84060317	4.82720809
O	14.21086125	25.37530788	4.78312365
O	29.54602587	15.04039069	4.77179170
O	29.54559026	25.45437541	4.77220014
O	18.13909776	14.99902653	4.81255168
O	18.01500631	25.42548377	4.82307631
O	10.46832894	11.08026058	5.70304366
O	10.43899219	21.57764671	5.83423456
O	25.72745313	10.85950224	5.94414605
O	25.58898937	21.59622475	5.87365721
O	14.20476602	11.10742664	5.63929874
O	14.26527879	21.55370848	5.59786716
O	29.47283148	10.99179173	5.87239971
O	29.50976898	21.52191766	5.81622251
O	17.98892241	11.08297825	5.64305089
O	17.96813120	21.46303729	5.58873074
O	12.21888236	16.41527543	5.52657352
O	12.27786936	26.73896939	5.78539017
O	27.49935550	16.43200518	5.78610260
O	27.62438800	26.92406965	5.60199991
O	16.21511212	16.26451795	5.66968184
O	16.13146553	26.76895249	5.86408304
O	19.99621639	16.31511869	5.84649559
O	19.89633956	26.83096732	5.62471543
O	12.13456440	13.31500272	6.28124763
O	12.34602861	23.76763154	6.33727034
O	27.58534227	13.32216272	6.38979329
O	27.41442585	23.81855969	6.29417724
O	16.02093249	13.28455458	6.26304918
O	16.21261434	23.73976006	6.32044641
O	20.21836728	13.38938906	6.37903004
O	19.96059425	23.83420139	6.37447995
O	10.37658629	18.52524293	6.34764351
O	10.59412709	29.06058098	6.43613254
O	25.52323685	18.49376241	6.50508112
O	25.60178726	29.08347351	6.34806740
O	14.34813066	18.53753943	6.37003127
O	13.96489654	29.04166137	6.43849998
O	29.25896453	18.67240996	6.32056794
O	29.44876079	28.93430243	6.42200923
O	18.18611123	18.56551264	6.24411644
O	18.12536472	29.13835916	6.41897274
H	12.69990946	14.29872971	7.81272976
H	13.48061304	14.92289939	11.13741106
H	14.74280160	18.23243860	8.73222143
O	14.29237356	15.95414747	7.46832784
O	12.94142894	14.66783638	8.72469528
C	13.68616967	15.69565885	8.64219351
C	14.01690060	16.48995907	9.82138364
C	13.75831532	15.99869378	11.09464045
C	14.45629772	17.86312746	9.77022997
N	12.96969155	19.64783537	15.41690264
N	15.86351672	21.65716806	17.42245424
N	15.88697308	19.87544015	15.05522155
N	13.02145156	21.27317179	17.68640784
C	21.60423869	20.34221835	16.42260145
C	14.00561474	24.85034150	22.06986867
C	7.26269354	20.40290557	16.58457136
C	19.27851327	21.05573970	15.97679678
C	14.26268628	24.20821755	19.78483466
C	9.56185449	19.75608871	17.18487507
C	21.17884039	22.35507954	15.14975692
C	13.61871137	26.40533317	20.29056231
C	7.61476483	18.85346451	18.45595790
C	14.33879714	18.89698178	13.39814944
C	17.83339179	20.83509855	16.14378960
C	14.43654356	22.98311486	18.86617926
C	11.05846582	19.89441743	16.98407463
C	15.61997033	19.32288491	13.83758281
C	17.23864480	20.06264317	15.16039955
C	13.27608477	22.22087814	18.64914246
C	11.71480980	20.83616586	17.84907867
C	16.89581408	19.06549392	13.21556543
C	17.89373099	19.62336548	13.94659966
C	12.10239698	22.43665220	19.41440438
C	11.15885289	21.50373762	18.98819586
C	13.15645782	18.97530566	14.22491535
C	17.21779439	21.59369730	17.17956663
C	15.68414326	22.72727298	18.25747341
C	11.63947953	19.34959259	15.79301620
C	11.94158573	18.36013152	13.76188097
C	17.94005532	22.45156976	18.07913263
C	16.97868784	23.24665207	18.71451739
C	11.00785969	18.55791608	14.80929691
H	11.75264761	17.95416876	12.74771059
H	19.02619949	22.62683589	18.12391831
H	17.16052760	23.99583569	19.53658744
H	9.96690801	18.22741579	14.72671693
H	17.03521340	18.55505456	12.24781796
H	19.00320990	19.62178485	13.79366187
H	11.98959849	23.22285481	20.12787068
H	10.19691926	21.35917405	19.44227603
H	21.45234027	23.23395989	14.53886369
H	13.28944866	27.43812369	20.04311258
H	7.12294147	18.24761557	19.24073474
H	22.37577312	19.66449587	16.70658559
H	14.11467357	24.65721898	23.10303835
H	6.55633839	21.03279487	15.97580021
H	15.32202473	20.25243287	15.80778103
H	13.71227697	21.02053336	16.98539931
C	23.57243553	21.74139194	15.72616826
H	23.96348884	22.06679627	16.74543479
H	23.77836047	22.53218495	15.04522393
H	24.13482011	20.85813039	15.45927512
C	19.82003226	18.75091478	16.87503943
H	19.14408871	18.65243495	17.73745274
H	20.75062684	18.20286224	17.09684775
H	19.23340647	18.14533655	16.16846177
C	18.75801748	23.17220162	14.78684336
H	17.78811267	22.99662067	15.19556760
H	18.67124776	23.05692082	13.70071011
H	19.05003526	24.20293936	15.08793176
C	9.88891106	17.92040258	18.95733050
H	9.33124628	17.38449621	19.73838901
H	10.68051893	18.49187912	19.47455354
H	10.37901817	17.13371141	18.28043183
C	9.03878387	21.29530568	15.19063368
H	10.12951914	21.49155204	15.18337435
H	8.50324133	22.27775302	15.21434412
H	8.69720658	20.81466185	14.19953140
C	5.27899579	19.56030548	17.92182655
H	5.17178211	18.85887503	18.77134214
H	4.72589650	19.15308226	17.10136103
H	4.76765855	20.55597473	18.17606236
C	14.10416894	25.78350289	17.81828291
H	14.11906814	24.80047566	17.31757868
H	15.04042992	26.34595866	17.65081184
H	13.32736183	26.35693988	17.44072350
C	14.95140318	22.60493973	21.63272753
H	14.84964899	22.55061787	22.71549400
H	16.02490009	22.52000050	21.33173952
H	14.43255270	21.72808939	21.22706629
C	13.31831009	27.11834400	22.70927065
H	12.92386335	26.71604528	23.63510661
H	12.62228844	27.86766147	22.27130686
H	14.24149997	27.57103374	23.04703879
C	22.08096107	21.47336583	15.76839480
C	20.20999892	20.10190687	16.40737420
C	19.79863593	22.16746241	15.31097699
C	13.99955154	25.51489905	19.31211532
C	14.35145439	23.87775889	21.12531753
C	13.57209522	26.08909954	21.64524004
C	9.00568724	18.86466828	18.21057320
C	8.64993273	20.43674603	16.35415402
C	6.74889360	19.63498975	17.65704321
H	13.56566413	16.49994082	13.20703660
H	15.10042783	19.73494615	10.75239980
C	14.29997672	18.12495818	12.14151172
C	13.80347391	16.80497469	12.19567226
C	14.71933492	18.69507667	10.89233806

Ti O H C N 0
6-31G*
****

