%chk=f00019791.chk
%mem=24GB
%nproc=12
#p b3lyp/6-31G*

title

0 1
Ti	2.81187400	0.19704000	1.10336000
Ti	0.90594400	5.44057000	1.10336000
Ti	4.71781400	5.44057000	1.10336000
Ti	0.90594400	2.47241000	1.99114000
Ti	4.71781400	2.47241000	1.99114000
Ti	2.81187400	7.71594000	1.99115000
O	2.81187400	8.81302000	0.37332000
O	0.90594400	3.56949000	0.37332000
O	4.71781400	3.56949000	0.37332000
O	0.90594400	0.60134000	1.26110000
O	4.71781400	0.60134000	1.26110000
O	2.81187400	5.84486000	1.26111000
O	2.81187400	2.06812000	1.83340000
O	0.90594400	7.31164000	1.83340000
O	4.71781400	7.31164000	1.83340000
O	0.90594400	4.34349000	2.72118000
O	4.71781400	4.34349000	2.72118000
O	2.81187400	9.58701000	2.72118000
Ti	6.62374588	0.19704000	1.10336000
Ti	21.87123776	0.19704000	1.10336000
Ti	8.52968588	5.44057000	1.10336000
Ti	23.77717776	5.44057000	1.10336000
Ti	8.52968588	2.47241000	1.99114000
Ti	23.77717776	2.47241000	1.99114000
Ti	6.62374588	7.71594000	1.99115000
Ti	21.87123776	7.71594000	1.99115000
Ti	10.43561588	0.19704000	1.10336000
Ti	25.68310776	0.19704000	1.10336000
Ti	14.24749588	0.19704000	1.10336000
Ti	29.49498776	0.19704000	1.10336000
Ti	18.05936588	0.19704000	1.10336000
Ti	12.34155588	5.44057000	1.10336000
Ti	27.58904776	5.44057000	1.10336000
Ti	16.15343588	5.44057000	1.10336000
Ti	19.96530588	5.44057000	1.10336000
Ti	12.34155588	2.47241000	1.99114000
Ti	27.58904776	2.47241000	1.99114000
Ti	16.15343588	2.47241000	1.99114000
Ti	19.96530588	2.47241000	1.99114000
Ti	10.43561588	7.71594000	1.99115000
Ti	25.68310776	7.71594000	1.99115000
Ti	14.24749588	7.71594000	1.99115000
Ti	29.49498776	7.71594000	1.99115000
Ti	18.05936588	7.71594000	1.99115000
O	6.62374588	8.81302000	0.37332000
O	21.87123776	8.81302000	0.37332000
O	8.52968588	3.56949000	0.37332000
O	23.77717776	3.56949000	0.37332000
O	8.52968588	0.60134000	1.26110000
O	23.77717776	0.60134000	1.26110000
O	6.62374588	5.84486000	1.26111000
O	21.87123776	5.84486000	1.26111000
O	6.62374588	2.06812000	1.83340000
O	21.87123776	2.06812000	1.83340000
O	8.52968588	7.31164000	1.83340000
O	23.77717776	7.31164000	1.83340000
O	8.52968588	4.34349000	2.72118000
O	23.77717776	4.34349000	2.72118000
O	6.62374588	9.58701000	2.72118000
O	21.87123776	9.58701000	2.72118000
O	10.43561588	8.81302000	0.37332000
O	25.68310776	8.81302000	0.37332000
O	14.24749588	8.81302000	0.37332000
O	29.49498776	8.81302000	0.37332000
O	18.05936588	8.81302000	0.37332000
O	12.34155588	3.56949000	0.37332000
O	27.58904776	3.56949000	0.37332000
O	16.15343588	3.56949000	0.37332000
O	19.96530588	3.56949000	0.37332000
O	12.34155588	0.60134000	1.26110000
O	27.58904776	0.60134000	1.26110000
O	16.15343588	0.60134000	1.26110000
O	19.96530588	0.60134000	1.26110000
O	10.43561588	5.84486000	1.26111000
O	25.68310776	5.84486000	1.26111000
O	14.24749588	5.84486000	1.26111000
O	29.49498776	5.84486000	1.26111000
O	18.05936588	5.84486000	1.26111000
O	10.43561588	2.06812000	1.83340000
O	25.68310776	2.06812000	1.83340000
O	14.24749588	2.06812000	1.83340000
O	29.49498776	2.06812000	1.83340000
O	18.05936588	2.06812000	1.83340000
O	12.34155588	7.31164000	1.83340000
O	27.58904776	7.31164000	1.83340000
O	16.15343588	7.31164000	1.83340000
O	19.96530588	7.31164000	1.83340000
O	12.34155588	4.34349000	2.72118000
O	27.58904776	4.34349000	2.72118000
O	16.15343588	4.34349000	2.72118000
O	19.96530588	4.34349000	2.72118000
O	10.43561588	9.58701000	2.72118000
O	25.68310776	9.58701000	2.72118000
O	14.24749588	9.58701000	2.72118000
O	29.49498776	9.58701000	2.72118000
O	18.05936588	9.58701000	2.72118000
Ti	2.81187400	10.68408607	1.10336000
Ti	2.81187400	21.17113214	1.10336000
Ti	0.90594400	15.92761607	1.10336000
Ti	0.90594400	26.41466214	1.10336000
Ti	4.71781400	15.92761607	1.10336000
Ti	4.71781400	26.41466214	1.10336000
Ti	0.90594400	12.95945607	1.99114000
Ti	0.90594400	23.44650214	1.99114000
Ti	4.71781400	12.95945607	1.99114000
Ti	4.71781400	23.44650214	1.99114000
Ti	2.81187400	18.20298607	1.99115000
Ti	2.81187400	28.69003214	1.99115000
O	2.81187400	19.30006607	0.37332000
O	2.81187400	29.78711214	0.37332000
O	0.90594400	14.05653607	0.37332000
O	0.90594400	24.54358214	0.37332000
O	4.71781400	14.05653607	0.37332000
O	4.71781400	24.54358214	0.37332000
O	0.90594400	11.08838607	1.26110000
O	0.90594400	21.57543214	1.26110000
O	4.71781400	11.08838607	1.26110000
O	4.71781400	21.57543214	1.26110000
O	2.81187400	16.33190607	1.26111000
O	2.81187400	26.81895214	1.26111000
O	2.81187400	12.55516607	1.83340000
O	2.81187400	23.04221214	1.83340000
O	0.90594400	17.79868607	1.83340000
O	0.90594400	28.28573214	1.83340000
O	4.71781400	17.79868607	1.83340000
O	4.71781400	28.28573214	1.83340000
O	0.90594400	14.83053607	2.72118000
O	0.90594400	25.31758214	2.72118000
O	4.71781400	14.83053607	2.72118000
O	4.71781400	25.31758214	2.72118000
O	2.81187400	20.07405607	2.72118000
O	2.81187400	30.56110214	2.72118000
Ti	6.62374588	10.68408607	1.10336000
Ti	6.62374588	21.17113214	1.10336000
Ti	21.87123776	10.68408607	1.10336000
Ti	21.87123776	21.17113214	1.10336000
Ti	8.52968588	15.92761607	1.10336000
Ti	8.52968588	26.41466214	1.10336000
Ti	23.77717776	15.92761607	1.10336000
Ti	23.77717776	26.41466214	1.10336000
Ti	8.52968588	12.95945607	1.99114000
Ti	8.52968588	23.44650214	1.99114000
Ti	23.77717776	12.95945607	1.99114000
Ti	23.77717776	23.44650214	1.99114000
Ti	6.62374588	18.20298607	1.99115000
Ti	6.62374588	28.69003214	1.99115000
Ti	21.87123776	18.20298607	1.99115000
Ti	21.87123776	28.69003214	1.99115000
Ti	10.43561588	10.68408607	1.10336000
Ti	10.43561588	21.17113214	1.10336000
Ti	25.68310776	10.68408607	1.10336000
Ti	25.68310776	21.17113214	1.10336000
Ti	14.24749588	10.68408607	1.10336000
Ti	14.24749588	21.17113214	1.10336000
Ti	29.49498776	10.68408607	1.10336000
Ti	29.49498776	21.17113214	1.10336000
Ti	18.05936588	10.68408607	1.10336000
Ti	18.05936588	21.17113214	1.10336000
Ti	12.34155588	15.92761607	1.10336000
Ti	12.34155588	26.41466214	1.10336000
Ti	27.58904776	15.92761607	1.10336000
Ti	27.58904776	26.41466214	1.10336000
Ti	16.15343588	15.92761607	1.10336000
Ti	16.15343588	26.41466214	1.10336000
Ti	19.96530588	15.92761607	1.10336000
Ti	19.96530588	26.41466214	1.10336000
Ti	12.34155588	12.95945607	1.99114000
Ti	12.34155588	23.44650214	1.99114000
Ti	27.58904776	12.95945607	1.99114000
Ti	27.58904776	23.44650214	1.99114000
Ti	16.15343588	12.95945607	1.99114000
Ti	16.15343588	23.44650214	1.99114000
Ti	19.96530588	12.95945607	1.99114000
Ti	19.96530588	23.44650214	1.99114000
Ti	10.43561588	18.20298607	1.99115000
Ti	10.43561588	28.69003214	1.99115000
Ti	25.68310776	18.20298607	1.99115000
Ti	25.68310776	28.69003214	1.99115000
Ti	14.24749588	18.20298607	1.99115000
Ti	14.24749588	28.69003214	1.99115000
Ti	29.49498776	18.20298607	1.99115000
Ti	29.49498776	28.69003214	1.99115000
Ti	18.05936588	18.20298607	1.99115000
Ti	18.05936588	28.69003214	1.99115000
O	6.62374588	19.30006607	0.37332000
O	6.62374588	29.78711214	0.37332000
O	21.87123776	19.30006607	0.37332000
O	21.87123776	29.78711214	0.37332000
O	8.52968588	14.05653607	0.37332000
O	8.52968588	24.54358214	0.37332000
O	23.77717776	14.05653607	0.37332000
O	23.77717776	24.54358214	0.37332000
O	8.52968588	11.08838607	1.26110000
O	8.52968588	21.57543214	1.26110000
O	23.77717776	11.08838607	1.26110000
O	23.77717776	21.57543214	1.26110000
O	6.62374588	16.33190607	1.26111000
O	6.62374588	26.81895214	1.26111000
O	21.87123776	16.33190607	1.26111000
O	21.87123776	26.81895214	1.26111000
O	6.62374588	12.55516607	1.83340000
O	6.62374588	23.04221214	1.83340000
O	21.87123776	12.55516607	1.83340000
O	21.87123776	23.04221214	1.83340000
O	8.52968588	17.79868607	1.83340000
O	8.52968588	28.28573214	1.83340000
O	23.77717776	17.79868607	1.83340000
O	23.77717776	28.28573214	1.83340000
O	8.52968588	14.83053607	2.72118000
O	8.52968588	25.31758214	2.72118000
O	23.77717776	14.83053607	2.72118000
O	23.77717776	25.31758214	2.72118000
O	6.62374588	20.07405607	2.72118000
O	6.62374588	30.56110214	2.72118000
O	21.87123776	20.07405607	2.72118000
O	21.87123776	30.56110214	2.72118000
O	10.43561588	19.30006607	0.37332000
O	10.43561588	29.78711214	0.37332000
O	25.68310776	19.30006607	0.37332000
O	25.68310776	29.78711214	0.37332000
O	14.24749588	19.30006607	0.37332000
O	14.24749588	29.78711214	0.37332000
O	29.49498776	19.30006607	0.37332000
O	29.49498776	29.78711214	0.37332000
O	18.05936588	19.30006607	0.37332000
O	18.05936588	29.78711214	0.37332000
O	12.34155588	14.05653607	0.37332000
O	12.34155588	24.54358214	0.37332000
O	27.58904776	14.05653607	0.37332000
O	27.58904776	24.54358214	0.37332000
O	16.15343588	14.05653607	0.37332000
O	16.15343588	24.54358214	0.37332000
O	19.96530588	14.05653607	0.37332000
O	19.96530588	24.54358214	0.37332000
O	12.34155588	11.08838607	1.26110000
O	12.34155588	21.57543214	1.26110000
O	27.58904776	11.08838607	1.26110000
O	27.58904776	21.57543214	1.26110000
O	16.15343588	11.08838607	1.26110000
O	16.15343588	21.57543214	1.26110000
O	19.96530588	11.08838607	1.26110000
O	19.96530588	21.57543214	1.26110000
O	10.43561588	16.33190607	1.26111000
O	10.43561588	26.81895214	1.26111000
O	25.68310776	16.33190607	1.26111000
O	25.68310776	26.81895214	1.26111000
O	14.24749588	16.33190607	1.26111000
O	14.24749588	26.81895214	1.26111000
O	29.49498776	16.33190607	1.26111000
O	29.49498776	26.81895214	1.26111000
O	18.05936588	16.33190607	1.26111000
O	18.05936588	26.81895214	1.26111000
O	10.43561588	12.55516607	1.83340000
O	10.43561588	23.04221214	1.83340000
O	25.68310776	12.55516607	1.83340000
O	25.68310776	23.04221214	1.83340000
O	14.24749588	12.55516607	1.83340000
O	14.24749588	23.04221214	1.83340000
O	29.49498776	12.55516607	1.83340000
O	29.49498776	23.04221214	1.83340000
O	18.05936588	12.55516607	1.83340000
O	18.05936588	23.04221214	1.83340000
O	12.34155588	17.79868607	1.83340000
O	12.34155588	28.28573214	1.83340000
O	27.58904776	17.79868607	1.83340000
O	27.58904776	28.28573214	1.83340000
O	16.15343588	17.79868607	1.83340000
O	16.15343588	28.28573214	1.83340000
O	19.96530588	17.79868607	1.83340000
O	19.96530588	28.28573214	1.83340000
O	12.34155588	14.83053607	2.72118000
O	12.34155588	25.31758214	2.72118000
O	27.58904776	14.83053607	2.72118000
O	27.58904776	25.31758214	2.72118000
O	16.15343588	14.83053607	2.72118000
O	16.15343588	25.31758214	2.72118000
O	19.96530588	14.83053607	2.72118000
O	19.96530588	25.31758214	2.72118000
O	10.43561588	20.07405607	2.72118000
O	10.43561588	30.56110214	2.72118000
O	25.68310776	20.07405607	2.72118000
O	25.68310776	30.56110214	2.72118000
O	14.24749588	20.07405607	2.72118000
O	14.24749588	30.56110214	2.72118000
O	29.49498776	20.07405607	2.72118000
O	29.49498776	30.56110214	2.72118000
O	18.05936588	20.07405607	2.72118000
O	18.05936588	30.56110214	2.72118000
Ti	6.62067553	9.11086276	4.84430546
Ti	6.59244441	6.16709151	5.44851123
Ti	2.83978888	9.17310257	4.85477319
Ti	0.85936371	4.04394591	4.72156523
Ti	4.68201286	3.85929278	4.72757385
Ti	0.84992979	1.14046143	5.55551408
Ti	4.75325941	0.93295034	5.58966131
Ti	2.81805586	6.25932512	5.51975152
O	6.75361435	7.29514353	3.96093938
O	6.60127758	4.21786047	4.95064385
O	6.64156489	0.48180670	5.81665746
O	6.66516615	7.94079743	6.39208190
O	2.98887274	7.26184289	3.95176680
O	0.89334572	2.18733112	3.96036854
O	4.81237565	2.07232328	3.94255352
O	0.89147778	9.47484432	4.75990259
O	4.76385373	9.52240231	4.98070207
O	2.83568666	4.35871923	4.87515113
O	2.82706118	0.47769697	5.84684426
O	0.91584779	5.83987565	5.65241286
O	4.72182954	5.77583111	5.77882011
O	0.82850897	2.87381393	6.34615992
O	4.65419230	2.73031275	6.39619526
O	2.75466795	8.01698736	6.37222771
Ti	21.85306386	9.34626295	4.86276273
Ti	8.50456045	3.96330085	4.76887294
Ti	23.67429037	4.09369053	4.78271513
Ti	8.56129769	0.92205732	5.42628014
Ti	23.83736910	1.07356360	5.41291404
Ti	21.81656465	6.37367448	5.44753293
Ti	10.46600700	9.26729610	4.73756120
Ti	25.63432140	9.26959821	4.73917542
Ti	14.21689732	9.21017674	4.73331597
Ti	29.44434017	9.15581483	4.81074063
Ti	17.99320027	9.33271923	4.76509515
Ti	12.24111271	4.10979632	4.70204216
Ti	27.44902293	3.97081365	4.84528872
Ti	16.16164387	4.03839788	4.68783649
Ti	19.92487303	3.92871517	4.66209541
Ti	12.40542387	1.13075306	5.55991517
Ti	27.51062476	1.02835409	5.39710798
Ti	16.07755858	1.17112584	5.59324043
Ti	19.92713281	0.98705798	5.49567000
Ti	10.38552624	6.36847076	5.49158386
Ti	25.52919114	6.35270663	5.44948582
Ti	14.19033334	6.31296169	5.41301061
Ti	29.38574454	6.20375186	5.39380840
Ti	18.04316314	6.41298908	5.49713897
O	21.78591125	7.44756631	3.88565704
O	8.42169787	2.14968485	3.96908039
O	23.70566900	2.12751094	3.90334507
O	8.46740671	9.64809282	4.79871060
O	23.72900666	9.77912928	4.69433243
O	21.78897398	4.45961762	4.69012533
O	21.92552490	0.62916530	5.69163444
O	8.48570167	5.73541224	5.91645850
O	23.68755664	5.85462527	5.78006215
O	8.48021450	2.69336081	6.36762333
O	23.86450640	2.90159836	6.26991628
O	21.85917072	8.10366079	6.40399239
O	10.39913853	7.33256113	3.87636106
O	25.69306634	7.39225183	3.95903874
O	14.21629372	7.39262062	3.89031616
O	29.39237090	7.32232567	3.86579897
O	18.05556927	7.44611312	3.93058446
O	12.41447385	2.21653393	3.94356831
O	27.53631396	2.16129411	3.85183908
O	16.07746981	2.13078655	3.93392812
O	19.80532658	2.08877993	3.96159840
O	12.31818479	9.70287365	4.65882275
O	27.58106066	9.65933025	4.88891663
O	16.12308965	9.67227225	4.79093291
O	19.98535033	9.65315798	4.77739813
O	10.37055545	4.52290135	4.58065639
O	25.61908591	4.46506107	4.66073485
O	14.18168889	4.48180523	4.66288997
O	29.34571812	4.36874902	4.86013358
O	18.09810509	4.57798758	4.64013700
O	10.42400645	0.56369123	5.68061554
O	25.70521262	0.50356069	5.74048160
O	14.24363220	1.05152500	6.16714082
O	29.42547916	0.55771457	5.79149227
O	18.01792922	0.54823352	5.67708050
O	12.24899322	5.91547405	5.70170687
O	27.47211301	5.87745289	5.66691809
O	16.12667521	5.99469126	5.68969572
O	19.89824480	5.80769951	5.80726472
O	12.20882861	2.84890047	6.28027745
O	27.33577025	2.79542602	6.25112720
O	16.25597939	3.00234823	6.30955948
O	19.89532010	2.66134512	6.39334588
O	10.27462937	8.11461318	6.30365575
O	25.54017770	8.05904940	6.32001512
O	14.11599259	8.04773942	6.29189779
O	29.50677181	7.95231275	6.37015043
O	18.22370801	8.23144419	6.27800832
Ti	6.58215922	19.61672171	4.67503270
Ti	6.70466486	30.12831581	4.77118070
Ti	6.60143047	16.78494479	5.42479627
Ti	6.69645854	27.22479287	5.44595463
Ti	2.85440319	19.87299756	4.69101011
Ti	2.77559218	30.27060186	4.64344625
Ti	0.90053641	14.27784855	4.68500949
Ti	0.93931083	24.98347682	4.65519105
Ti	4.61049918	14.48996575	4.87252634
Ti	4.73699900	25.04542881	4.83131504
Ti	0.94255305	11.39438908	5.47894206
Ti	0.84436350	22.15459977	5.53201862
Ti	4.79219321	11.60020453	5.50868681
Ti	4.66453307	22.13412451	5.52271380
Ti	2.80879983	16.91767967	5.49236891
Ti	2.82302067	27.32295372	5.49819396
O	6.70839797	17.81795671	3.89850045
O	6.76991992	28.29919981	3.88476217
O	6.63581318	14.74152812	4.66495852
O	6.68345961	25.34727867	4.97084501
O	6.70042531	11.03576940	5.65313573
O	6.55450533	21.68583704	5.94004641
O	6.54584953	18.54980479	6.32613826
O	6.70546309	28.94447043	6.28842483
O	2.82695202	18.04293728	3.92040979
O	2.82718529	28.33757136	3.87436196
O	0.95435987	12.41190473	3.87666836
O	0.78004394	23.15130416	3.92067592
O	4.51720147	12.57707077	3.97722005
O	4.70828631	23.21003926	3.95475178
O	0.90842896	20.16073742	4.85836198
O	0.88417823	30.67636216	4.82523704
O	4.74765421	20.24086025	4.81942733
O	4.78637399	30.53602564	4.75239493
O	2.74659390	14.97164120	4.85503826
O	2.76602184	25.39743007	4.81321133
O	2.84407371	11.07528500	5.61726941
O	2.80958013	21.73999434	5.64946214
O	0.93656417	16.69667975	6.20450667
O	0.89985067	26.94302346	5.83485847
O	4.67222974	16.24362783	5.72336984
O	4.71848694	26.89381867	5.64239655
O	0.83429587	13.12368797	6.31116726
O	0.81881936	23.87632356	6.37970676
O	4.71394748	13.30889318	6.39223773
O	4.79662858	23.82659829	6.43211767
O	2.95019515	18.65967322	6.34193350
O	2.78505742	29.18207113	6.30787084
Ti	21.84304135	19.79357143	4.72673864
Ti	21.80760843	30.21075960	4.69674871
Ti	8.58989172	14.47458593	4.72370863
Ti	8.55555495	24.97300840	4.78203804
Ti	23.85798876	14.50529991	4.77748638
Ti	23.75614548	24.96971536	4.83011055
Ti	8.51550415	11.52769033	5.45947102
Ti	8.49579156	22.09234325	5.64175909
Ti	23.79862203	11.61509262	5.50653843
Ti	23.80359837	22.05979115	5.55290636
Ti	21.90918102	16.80445576	5.57089266
Ti	21.78155242	27.20800644	5.55459813
Ti	10.45755170	19.68427834	4.81005840
Ti	10.60362704	30.24608454	4.81038017
Ti	25.64594885	19.61098299	4.68242758
Ti	25.65157376	30.11636849	4.75413516
Ti	14.23027311	19.70829751	4.84713465
Ti	14.23252179	30.09739921	4.67258251
Ti	29.49652746	19.76115880	4.83415978
Ti	29.50128104	30.18842385	4.88187554
Ti	18.05639454	19.70473517	4.62136087
Ti	17.85397702	30.21983358	4.79836460
Ti	12.39212497	14.48869661	4.60064544
Ti	12.42615025	24.95004755	4.70571391
Ti	27.74315631	14.40436545	4.83958387
Ti	27.57253321	24.96842863	4.75742591
Ti	16.14047039	14.46445760	4.61260944
Ti	16.21998859	24.96866170	4.68558711
Ti	20.05004668	14.55812236	4.84065346
Ti	19.88667296	24.88333878	4.62891282
Ti	12.39099443	11.60564058	5.33762075
Ti	12.24500117	22.04786051	5.54663934
Ti	27.66473814	11.54377109	5.60263080
Ti	27.55355766	22.09613502	5.55587482
Ti	16.00262416	11.52266487	5.38682761
Ti	16.17318446	22.04785547	5.46997210
Ti	19.89526473	11.65027306	5.51849745
Ti	19.95531486	22.01901797	5.49121114
Ti	10.50612748	16.85088492	5.58162037
Ti	10.62125074	27.31363116	5.48237394
Ti	25.83430563	16.73795850	5.58712825
Ti	25.68306323	27.21649224	5.50870455
Ti	14.29654638	16.76297190	5.69958638
Ti	14.32115881	27.21665252	5.43172306
Ti	29.55421772	16.93465581	5.68209482
Ti	29.53842289	27.30811124	5.50317893
Ti	18.08077804	16.81325968	5.43317466
Ti	18.06733052	27.29130209	5.49187319
O	22.02841029	17.78944523	3.93668487
O	21.93575265	28.22107062	3.96807483
O	8.60352822	12.58539445	3.90716375
O	8.33440537	23.07959080	4.02093410
O	23.71803399	12.58253516	3.97589929
O	23.59548266	23.02119679	3.96084557
O	8.47153249	20.25750037	4.90493358
O	8.64201805	30.44781900	4.79925242
O	23.84105655	20.28995713	4.68487233
O	23.78533602	30.65186623	4.65212386
O	21.93837548	14.98123037	4.67003828
O	21.85619856	25.34519454	4.79944490
O	21.85408843	11.14366698	5.78770398
O	21.81736344	21.47714899	5.82494018
O	8.48473142	16.36612072	5.88951972
O	8.66768206	26.81603710	5.84887353
O	23.84567693	16.26665863	5.74599148
O	23.77798034	26.76067799	5.76234418
O	8.64954644	13.32244941	6.28864917
O	8.57839017	23.93123941	6.35171089
O	23.91998329	13.34708675	6.37804662
O	23.74352482	23.85774697	6.46576727
O	21.85622989	18.63660866	6.32373486
O	22.07976877	29.09709008	6.35612994
O	10.42760680	17.89944215	3.99818347
O	10.65723593	28.38806325	3.88889575
O	25.79254672	17.79703562	3.92692679
O	25.54133709	28.26733044	3.93854653
O	14.27259953	17.88545984	3.95102900
O	14.27913317	28.30035386	3.94004269
O	29.47028379	17.84259442	4.01602822
O	29.64644535	28.33685371	3.89977732
O	17.83292127	17.73185615	3.86385227
O	18.04286026	28.32262452	3.85503741
O	12.67969482	12.66807746	3.86421599
O	12.16909120	23.03906078	3.89118172
O	27.71137247	12.65235286	4.01631780
O	27.64590935	23.10534994	3.99537824
O	16.26888936	12.57267469	3.93825051
O	16.13306519	23.12986159	3.90084271
O	20.02337242	12.64509260	3.99240873
O	19.92680221	23.01862007	3.87136583
O	12.31337990	20.19362972	4.93684520
O	12.48900026	30.74925175	4.82808848
O	27.56214489	20.22233817	4.61615529
O	27.56923659	30.65435603	4.74465765
O	16.11115050	20.05615320	4.82156457
O	15.96481038	30.76176603	4.93129452
O	19.97520544	20.12606422	4.76481423
O	19.96742243	30.60221649	4.90326503
O	10.44853035	14.99883917	4.73506385
O	10.49658068	25.42578151	4.76243551
O	25.84754158	14.89488714	4.92190093
O	25.61422290	25.41620827	4.72018025
O	14.25814388	15.05461103	4.69048594
O	14.23563748	25.25723825	4.84988217
O	29.62353355	14.97339728	5.02717225
O	29.45157956	25.38517675	4.80501914
O	18.12030348	14.92354291	4.79519685
O	18.06197465	25.53581789	4.65114222
O	10.46003334	11.08723993	5.56240974
O	10.41039278	21.63871060	5.88761133
O	25.71783599	11.08283388	5.65768551
O	25.70158708	21.59468683	5.83471679
O	14.15412702	10.92840600	5.88319415
O	14.20215922	21.66239415	5.69159174
O	29.53850643	10.93745330	5.87085498
O	29.43226342	21.68332412	5.67121991
O	18.00442541	11.10493353	5.74624774
O	18.03231682	21.53377792	5.53733379
O	12.31773024	16.27936140	5.75800952
O	12.41065539	26.73675994	5.73443285
O	27.71198627	16.19204738	5.97684450
O	27.53950948	26.92460661	5.88324250
O	16.22263661	16.33763621	5.72945873
O	16.16798674	26.82227303	5.75574901
O	20.02627394	16.36324869	5.56494840
O	19.93497251	26.71701723	5.90919899
O	12.07815223	13.30581897	6.18388233
O	12.39122925	23.81175123	6.37025506
O	27.82859289	13.32680264	6.40928655
O	27.35419659	23.91403544	6.36665072
O	16.20729162	13.22424917	6.27244652
O	16.41937591	23.86955179	6.24068314
O	20.13624324	13.41421537	6.46164780
O	19.90221145	23.81613755	6.35291494
O	10.33301576	18.55382274	6.41465106
O	10.75717528	29.04439525	6.35625860
O	25.58407528	18.55608173	6.38224760
O	25.52722338	28.89327632	6.38207704
O	14.37424403	18.57721295	6.35554925
O	14.20834940	29.04002459	6.33527744
O	29.49254772	18.73820687	6.41347060
O	29.25008367	29.00632878	6.30992851
O	18.31219025	18.47491374	6.37299306
O	17.97920690	28.98702369	6.29882051
H	12.85219898	14.46914854	7.71993853
H	12.49828518	15.30073955	11.17397869
H	14.97113201	18.19071721	9.01742176
O	14.23145823	16.01730059	7.52888976
O	12.81172438	14.76993560	8.65916731
C	13.52504430	15.79793423	8.68268389
C	13.77010896	16.61412971	9.92176017
C	13.16667065	16.16231784	11.12688016
C	14.50295662	17.78877045	9.93358929
N	13.00083193	19.59692825	15.63172091
N	16.02024563	21.76506108	17.40635974
N	15.95704412	19.81814247	15.13785231
N	13.08176304	21.37862043	17.81967357
C	21.61389755	20.35998030	16.42220064
C	14.40016665	24.82288998	22.48442717
C	7.17688901	20.76176350	16.99160909
C	19.43217211	21.29540255	15.82917891
C	14.44900602	23.94696481	20.13277771
C	9.56911231	20.12950125	17.14702513
C	21.42718692	22.51665166	15.25632015
C	14.14671530	26.24016377	20.56091460
C	7.79356156	18.70313488	18.07653661
C	14.35573677	18.69892329	13.63842166
C	17.94511199	21.09090066	15.93829428
C	14.60567562	22.79477488	19.20035592
C	11.00634489	20.35712429	16.89696533
C	15.67958396	19.03202788	14.07649774
C	17.29212944	20.09444344	15.19067491
C	13.36497151	22.32765750	18.76458531
C	11.76764012	21.08254900	17.83188484
C	16.92578547	18.75926570	13.37099073
C	17.90292902	19.38643674	14.13253170
C	12.16982541	22.49476369	19.56677994
C	11.13679599	21.84002201	18.91829843
C	13.13891088	19.03608375	14.30691686
C	17.33912904	21.85269859	17.02323293
C	15.84770711	22.54373770	18.56066144
C	11.65828622	19.78952599	15.74920942
C	11.83192590	18.89556116	13.69336915
C	18.01044814	22.79204375	17.85996182
C	17.18323562	23.22424338	18.80061154
C	10.89873210	19.24597552	14.62015544
H	11.63024186	18.39690001	12.73449857
H	19.08222649	23.06502277	17.72946922
H	17.32953403	24.06120005	19.49775340
H	9.83018171	19.13745529	14.65808466
H	17.07910882	18.17542128	12.44613241
H	18.98143077	19.39188403	13.86966951
H	12.07145776	23.11021483	20.47815058
H	10.09152519	21.77064664	19.22288895
H	21.77608442	23.50078544	14.95301791
H	14.07937553	27.21937621	20.17647242
H	7.48119072	17.74765453	18.46431121
H	22.30067825	19.66390016	16.93515076
H	14.53509681	24.58970463	23.54534903
H	6.46860381	21.48879035	16.69505299
H	15.31399089	20.32734836	15.74338996
H	13.83935377	21.00255126	17.21924031
C	23.67466196	21.64920055	15.70643473
H	23.92670342	22.68824274	15.53842874
H	24.11786093	21.05597043	14.83405281
H	24.18281660	21.31312257	16.56310571
C	19.55796810	19.04358611	16.99479791
H	19.74336545	18.11404119	16.45279167
H	18.45427133	19.08860431	17.10584560
H	19.94469441	18.79777813	17.96431391
C	19.18397191	23.54283212	14.65593228
H	19.36374436	23.64201838	13.54691060
H	19.52410837	24.55169579	15.13434611
H	18.11390403	23.46823369	14.82271003
C	10.10638534	17.93821630	18.32531854
H	9.58674784	16.97511185	18.42539190
H	10.22951804	18.16936532	19.40368131
H	10.99980890	17.82777623	17.79103238
C	8.97358504	22.18815525	15.91810092
H	9.45597524	22.93743651	16.60029284
H	8.09481572	22.57397410	15.40845619
H	9.84292390	21.91278596	15.28977462
C	5.32181244	19.33237799	17.84163581
H	4.88358270	18.92830905	16.89909464
H	4.87375467	20.36649623	18.16361004
H	5.02531500	18.63156734	18.61439072
C	14.35816690	25.53810595	18.15708279
H	13.46936490	25.13631953	17.63424006
H	15.21497820	25.04667865	17.74620593
H	14.44571436	26.63905618	18.02119896
C	14.59702264	22.33291322	22.07481889
H	13.82899717	21.68722677	21.72774815
H	14.66366784	22.24296367	23.13537981
H	15.59769833	21.91737268	21.74508968
C	14.32046041	27.29817852	22.87775731
H	13.30590849	27.73402130	23.00209291
H	14.87828409	28.12252045	22.45516405
H	14.68528297	27.06863043	23.87637704
C	22.20093681	21.45025996	15.77369340
C	20.20244569	20.24286427	16.42046550
C	20.01978281	22.44766116	15.25593458
C	14.25365880	25.23238213	19.63172376
C	14.43924830	23.72837011	21.57985203
C	14.28081452	26.09840128	21.95725226
C	9.15177353	18.92097408	17.77032184
C	8.53472269	20.97556811	16.72411965
C	6.82798658	19.60107222	17.66456877
H	12.97027260	16.33543220	13.21195057
H	15.18009206	19.45539420	11.03869831
C	14.23386162	17.95331396	12.32710412
C	13.40631327	16.78896512	12.29015968
C	14.77226546	18.46029772	11.14359898

Ti O H C N 0
6-31G*
****

