%chk=f00012713.chk
%mem=24GB
%nproc=12
#p b3lyp/6-31G*

title

0 1
Ti	2.81187400	0.19704000	1.10336000
Ti	0.90594400	5.44057000	1.10336000
Ti	4.71781400	5.44057000	1.10336000
Ti	0.90594400	2.47241000	1.99114000
Ti	4.71781400	2.47241000	1.99114000
Ti	2.81187400	7.71594000	1.99115000
O	2.81187400	8.81302000	0.37332000
O	0.90594400	3.56949000	0.37332000
O	4.71781400	3.56949000	0.37332000
O	0.90594400	0.60134000	1.26110000
O	4.71781400	0.60134000	1.26110000
O	2.81187400	5.84486000	1.26111000
O	2.81187400	2.06812000	1.83340000
O	0.90594400	7.31164000	1.83340000
O	4.71781400	7.31164000	1.83340000
O	0.90594400	4.34349000	2.72118000
O	4.71781400	4.34349000	2.72118000
O	2.81187400	9.58701000	2.72118000
Ti	6.62374588	0.19704000	1.10336000
Ti	21.87123776	0.19704000	1.10336000
Ti	8.52968588	5.44057000	1.10336000
Ti	23.77717776	5.44057000	1.10336000
Ti	8.52968588	2.47241000	1.99114000
Ti	23.77717776	2.47241000	1.99114000
Ti	6.62374588	7.71594000	1.99115000
Ti	21.87123776	7.71594000	1.99115000
Ti	10.43561588	0.19704000	1.10336000
Ti	25.68310776	0.19704000	1.10336000
Ti	14.24749588	0.19704000	1.10336000
Ti	29.49498776	0.19704000	1.10336000
Ti	18.05936588	0.19704000	1.10336000
Ti	12.34155588	5.44057000	1.10336000
Ti	27.58904776	5.44057000	1.10336000
Ti	16.15343588	5.44057000	1.10336000
Ti	19.96530588	5.44057000	1.10336000
Ti	12.34155588	2.47241000	1.99114000
Ti	27.58904776	2.47241000	1.99114000
Ti	16.15343588	2.47241000	1.99114000
Ti	19.96530588	2.47241000	1.99114000
Ti	10.43561588	7.71594000	1.99115000
Ti	25.68310776	7.71594000	1.99115000
Ti	14.24749588	7.71594000	1.99115000
Ti	29.49498776	7.71594000	1.99115000
Ti	18.05936588	7.71594000	1.99115000
O	6.62374588	8.81302000	0.37332000
O	21.87123776	8.81302000	0.37332000
O	8.52968588	3.56949000	0.37332000
O	23.77717776	3.56949000	0.37332000
O	8.52968588	0.60134000	1.26110000
O	23.77717776	0.60134000	1.26110000
O	6.62374588	5.84486000	1.26111000
O	21.87123776	5.84486000	1.26111000
O	6.62374588	2.06812000	1.83340000
O	21.87123776	2.06812000	1.83340000
O	8.52968588	7.31164000	1.83340000
O	23.77717776	7.31164000	1.83340000
O	8.52968588	4.34349000	2.72118000
O	23.77717776	4.34349000	2.72118000
O	6.62374588	9.58701000	2.72118000
O	21.87123776	9.58701000	2.72118000
O	10.43561588	8.81302000	0.37332000
O	25.68310776	8.81302000	0.37332000
O	14.24749588	8.81302000	0.37332000
O	29.49498776	8.81302000	0.37332000
O	18.05936588	8.81302000	0.37332000
O	12.34155588	3.56949000	0.37332000
O	27.58904776	3.56949000	0.37332000
O	16.15343588	3.56949000	0.37332000
O	19.96530588	3.56949000	0.37332000
O	12.34155588	0.60134000	1.26110000
O	27.58904776	0.60134000	1.26110000
O	16.15343588	0.60134000	1.26110000
O	19.96530588	0.60134000	1.26110000
O	10.43561588	5.84486000	1.26111000
O	25.68310776	5.84486000	1.26111000
O	14.24749588	5.84486000	1.26111000
O	29.49498776	5.84486000	1.26111000
O	18.05936588	5.84486000	1.26111000
O	10.43561588	2.06812000	1.83340000
O	25.68310776	2.06812000	1.83340000
O	14.24749588	2.06812000	1.83340000
O	29.49498776	2.06812000	1.83340000
O	18.05936588	2.06812000	1.83340000
O	12.34155588	7.31164000	1.83340000
O	27.58904776	7.31164000	1.83340000
O	16.15343588	7.31164000	1.83340000
O	19.96530588	7.31164000	1.83340000
O	12.34155588	4.34349000	2.72118000
O	27.58904776	4.34349000	2.72118000
O	16.15343588	4.34349000	2.72118000
O	19.96530588	4.34349000	2.72118000
O	10.43561588	9.58701000	2.72118000
O	25.68310776	9.58701000	2.72118000
O	14.24749588	9.58701000	2.72118000
O	29.49498776	9.58701000	2.72118000
O	18.05936588	9.58701000	2.72118000
Ti	2.81187400	10.68408607	1.10336000
Ti	2.81187400	21.17113214	1.10336000
Ti	0.90594400	15.92761607	1.10336000
Ti	0.90594400	26.41466214	1.10336000
Ti	4.71781400	15.92761607	1.10336000
Ti	4.71781400	26.41466214	1.10336000
Ti	0.90594400	12.95945607	1.99114000
Ti	0.90594400	23.44650214	1.99114000
Ti	4.71781400	12.95945607	1.99114000
Ti	4.71781400	23.44650214	1.99114000
Ti	2.81187400	18.20298607	1.99115000
Ti	2.81187400	28.69003214	1.99115000
O	2.81187400	19.30006607	0.37332000
O	2.81187400	29.78711214	0.37332000
O	0.90594400	14.05653607	0.37332000
O	0.90594400	24.54358214	0.37332000
O	4.71781400	14.05653607	0.37332000
O	4.71781400	24.54358214	0.37332000
O	0.90594400	11.08838607	1.26110000
O	0.90594400	21.57543214	1.26110000
O	4.71781400	11.08838607	1.26110000
O	4.71781400	21.57543214	1.26110000
O	2.81187400	16.33190607	1.26111000
O	2.81187400	26.81895214	1.26111000
O	2.81187400	12.55516607	1.83340000
O	2.81187400	23.04221214	1.83340000
O	0.90594400	17.79868607	1.83340000
O	0.90594400	28.28573214	1.83340000
O	4.71781400	17.79868607	1.83340000
O	4.71781400	28.28573214	1.83340000
O	0.90594400	14.83053607	2.72118000
O	0.90594400	25.31758214	2.72118000
O	4.71781400	14.83053607	2.72118000
O	4.71781400	25.31758214	2.72118000
O	2.81187400	20.07405607	2.72118000
O	2.81187400	30.56110214	2.72118000
Ti	6.62374588	10.68408607	1.10336000
Ti	6.62374588	21.17113214	1.10336000
Ti	21.87123776	10.68408607	1.10336000
Ti	21.87123776	21.17113214	1.10336000
Ti	8.52968588	15.92761607	1.10336000
Ti	8.52968588	26.41466214	1.10336000
Ti	23.77717776	15.92761607	1.10336000
Ti	23.77717776	26.41466214	1.10336000
Ti	8.52968588	12.95945607	1.99114000
Ti	8.52968588	23.44650214	1.99114000
Ti	23.77717776	12.95945607	1.99114000
Ti	23.77717776	23.44650214	1.99114000
Ti	6.62374588	18.20298607	1.99115000
Ti	6.62374588	28.69003214	1.99115000
Ti	21.87123776	18.20298607	1.99115000
Ti	21.87123776	28.69003214	1.99115000
Ti	10.43561588	10.68408607	1.10336000
Ti	10.43561588	21.17113214	1.10336000
Ti	25.68310776	10.68408607	1.10336000
Ti	25.68310776	21.17113214	1.10336000
Ti	14.24749588	10.68408607	1.10336000
Ti	14.24749588	21.17113214	1.10336000
Ti	29.49498776	10.68408607	1.10336000
Ti	29.49498776	21.17113214	1.10336000
Ti	18.05936588	10.68408607	1.10336000
Ti	18.05936588	21.17113214	1.10336000
Ti	12.34155588	15.92761607	1.10336000
Ti	12.34155588	26.41466214	1.10336000
Ti	27.58904776	15.92761607	1.10336000
Ti	27.58904776	26.41466214	1.10336000
Ti	16.15343588	15.92761607	1.10336000
Ti	16.15343588	26.41466214	1.10336000
Ti	19.96530588	15.92761607	1.10336000
Ti	19.96530588	26.41466214	1.10336000
Ti	12.34155588	12.95945607	1.99114000
Ti	12.34155588	23.44650214	1.99114000
Ti	27.58904776	12.95945607	1.99114000
Ti	27.58904776	23.44650214	1.99114000
Ti	16.15343588	12.95945607	1.99114000
Ti	16.15343588	23.44650214	1.99114000
Ti	19.96530588	12.95945607	1.99114000
Ti	19.96530588	23.44650214	1.99114000
Ti	10.43561588	18.20298607	1.99115000
Ti	10.43561588	28.69003214	1.99115000
Ti	25.68310776	18.20298607	1.99115000
Ti	25.68310776	28.69003214	1.99115000
Ti	14.24749588	18.20298607	1.99115000
Ti	14.24749588	28.69003214	1.99115000
Ti	29.49498776	18.20298607	1.99115000
Ti	29.49498776	28.69003214	1.99115000
Ti	18.05936588	18.20298607	1.99115000
Ti	18.05936588	28.69003214	1.99115000
O	6.62374588	19.30006607	0.37332000
O	6.62374588	29.78711214	0.37332000
O	21.87123776	19.30006607	0.37332000
O	21.87123776	29.78711214	0.37332000
O	8.52968588	14.05653607	0.37332000
O	8.52968588	24.54358214	0.37332000
O	23.77717776	14.05653607	0.37332000
O	23.77717776	24.54358214	0.37332000
O	8.52968588	11.08838607	1.26110000
O	8.52968588	21.57543214	1.26110000
O	23.77717776	11.08838607	1.26110000
O	23.77717776	21.57543214	1.26110000
O	6.62374588	16.33190607	1.26111000
O	6.62374588	26.81895214	1.26111000
O	21.87123776	16.33190607	1.26111000
O	21.87123776	26.81895214	1.26111000
O	6.62374588	12.55516607	1.83340000
O	6.62374588	23.04221214	1.83340000
O	21.87123776	12.55516607	1.83340000
O	21.87123776	23.04221214	1.83340000
O	8.52968588	17.79868607	1.83340000
O	8.52968588	28.28573214	1.83340000
O	23.77717776	17.79868607	1.83340000
O	23.77717776	28.28573214	1.83340000
O	8.52968588	14.83053607	2.72118000
O	8.52968588	25.31758214	2.72118000
O	23.77717776	14.83053607	2.72118000
O	23.77717776	25.31758214	2.72118000
O	6.62374588	20.07405607	2.72118000
O	6.62374588	30.56110214	2.72118000
O	21.87123776	20.07405607	2.72118000
O	21.87123776	30.56110214	2.72118000
O	10.43561588	19.30006607	0.37332000
O	10.43561588	29.78711214	0.37332000
O	25.68310776	19.30006607	0.37332000
O	25.68310776	29.78711214	0.37332000
O	14.24749588	19.30006607	0.37332000
O	14.24749588	29.78711214	0.37332000
O	29.49498776	19.30006607	0.37332000
O	29.49498776	29.78711214	0.37332000
O	18.05936588	19.30006607	0.37332000
O	18.05936588	29.78711214	0.37332000
O	12.34155588	14.05653607	0.37332000
O	12.34155588	24.54358214	0.37332000
O	27.58904776	14.05653607	0.37332000
O	27.58904776	24.54358214	0.37332000
O	16.15343588	14.05653607	0.37332000
O	16.15343588	24.54358214	0.37332000
O	19.96530588	14.05653607	0.37332000
O	19.96530588	24.54358214	0.37332000
O	12.34155588	11.08838607	1.26110000
O	12.34155588	21.57543214	1.26110000
O	27.58904776	11.08838607	1.26110000
O	27.58904776	21.57543214	1.26110000
O	16.15343588	11.08838607	1.26110000
O	16.15343588	21.57543214	1.26110000
O	19.96530588	11.08838607	1.26110000
O	19.96530588	21.57543214	1.26110000
O	10.43561588	16.33190607	1.26111000
O	10.43561588	26.81895214	1.26111000
O	25.68310776	16.33190607	1.26111000
O	25.68310776	26.81895214	1.26111000
O	14.24749588	16.33190607	1.26111000
O	14.24749588	26.81895214	1.26111000
O	29.49498776	16.33190607	1.26111000
O	29.49498776	26.81895214	1.26111000
O	18.05936588	16.33190607	1.26111000
O	18.05936588	26.81895214	1.26111000
O	10.43561588	12.55516607	1.83340000
O	10.43561588	23.04221214	1.83340000
O	25.68310776	12.55516607	1.83340000
O	25.68310776	23.04221214	1.83340000
O	14.24749588	12.55516607	1.83340000
O	14.24749588	23.04221214	1.83340000
O	29.49498776	12.55516607	1.83340000
O	29.49498776	23.04221214	1.83340000
O	18.05936588	12.55516607	1.83340000
O	18.05936588	23.04221214	1.83340000
O	12.34155588	17.79868607	1.83340000
O	12.34155588	28.28573214	1.83340000
O	27.58904776	17.79868607	1.83340000
O	27.58904776	28.28573214	1.83340000
O	16.15343588	17.79868607	1.83340000
O	16.15343588	28.28573214	1.83340000
O	19.96530588	17.79868607	1.83340000
O	19.96530588	28.28573214	1.83340000
O	12.34155588	14.83053607	2.72118000
O	12.34155588	25.31758214	2.72118000
O	27.58904776	14.83053607	2.72118000
O	27.58904776	25.31758214	2.72118000
O	16.15343588	14.83053607	2.72118000
O	16.15343588	25.31758214	2.72118000
O	19.96530588	14.83053607	2.72118000
O	19.96530588	25.31758214	2.72118000
O	10.43561588	20.07405607	2.72118000
O	10.43561588	30.56110214	2.72118000
O	25.68310776	20.07405607	2.72118000
O	25.68310776	30.56110214	2.72118000
O	14.24749588	20.07405607	2.72118000
O	14.24749588	30.56110214	2.72118000
O	29.49498776	20.07405607	2.72118000
O	29.49498776	30.56110214	2.72118000
O	18.05936588	20.07405607	2.72118000
O	18.05936588	30.56110214	2.72118000
Ti	6.64152797	9.06046355	4.87855983
Ti	6.63517031	6.18875556	5.52145343
Ti	2.96649706	9.28217677	4.74362435
Ti	0.96656089	3.86569860	4.69472572
Ti	4.69494363	4.00122186	4.75356126
Ti	0.85712900	0.95565082	5.45706449
Ti	4.73723647	1.08217021	5.41553603
Ti	2.77445539	6.29789473	5.48974421
O	6.53109720	7.27239700	3.92370296
O	6.63181436	4.37639122	4.77251882
O	6.64922881	0.57420603	5.67022917
O	6.52825200	7.94745693	6.41115024
O	2.96819991	7.36481533	3.94883804
O	0.95809576	2.03017820	3.88921588
O	4.81372979	2.07863425	3.92234495
O	0.95595403	9.65285924	5.04053373
O	4.82647187	9.74964292	4.82692623
O	2.78974357	4.41421832	4.80413545
O	2.81680609	0.51616338	5.64142687
O	0.90068870	5.89427478	5.73376429
O	4.70756611	5.78064939	5.90889428
O	0.66745708	2.66869771	6.34705234
O	4.71659318	2.77890832	6.22456316
O	3.10409326	8.15963687	6.36699434
Ti	21.98343161	9.21023240	4.77425828
Ti	8.50229022	3.97190522	4.79316198
Ti	23.79739051	4.00431363	4.77721160
Ti	8.62945695	1.07079161	5.46993337
Ti	23.82873682	1.11567897	5.58581564
Ti	21.78597696	6.29217554	5.48827925
Ti	10.43219826	9.25097399	4.78572587
Ti	25.68060790	9.17264217	4.81521455
Ti	14.32857106	9.26690546	4.71010544
Ti	29.52382851	9.25073034	4.79845007
Ti	18.21098486	9.15066081	4.80663762
Ti	12.22192519	3.98784685	4.71435226
Ti	27.72002811	3.97286828	4.76465709
Ti	15.97845687	4.01917204	4.80049519
Ti	19.95123308	3.94951864	4.70120568
Ti	12.33013326	1.08557187	5.50378091
Ti	27.60334272	1.04372970	5.42235341
Ti	16.15024701	1.11669194	5.50257720
Ti	20.00884465	0.96937596	5.40371618
Ti	10.43142860	6.29615965	5.54578241
Ti	25.59924773	6.26033520	5.52790530
Ti	14.26836202	6.38049260	5.57938797
Ti	29.41145189	6.28717705	5.46096561
Ti	17.99948908	6.18134145	5.44308877
O	21.80659337	7.38158617	3.99336979
O	8.33976472	2.08102736	3.84379284
O	23.64871133	1.94955549	3.92069588
O	8.47521896	9.65953873	4.77787888
O	23.83914275	9.73946731	4.81803937
O	21.89997590	4.32714273	4.76478529
O	21.95777698	0.54825668	5.77497927
O	8.54934483	5.73267666	5.96178882
O	23.71952877	5.75612115	5.72073817
O	8.55720040	2.81215592	6.29483367
O	23.56933440	2.80979633	6.40163194
O	22.03300131	7.93742224	6.41176180
O	10.37095328	7.33569524	3.87931168
O	25.73609056	7.18941114	3.90955451
O	14.25916580	7.39583252	3.95815739
O	29.33532415	7.42207740	3.95729456
O	18.19018077	7.36005805	3.98632055
O	12.10339305	2.10056377	3.93257477
O	27.47594103	2.06804850	3.93363958
O	15.95632976	2.13266061	3.95614415
O	20.22869827	2.10223538	3.87968529
O	12.38346840	9.51562822	5.07202030
O	27.53233916	9.63149313	4.81511083
O	16.26489152	9.59013563	4.82860495
O	20.06004585	9.60401329	4.74903928
O	10.32365802	4.62368478	4.52605714
O	25.70044464	4.37652082	4.81316327
O	14.15155936	4.49344273	4.80785843
O	29.62043277	4.38479781	4.70021746
O	17.92291805	4.28240525	4.85258356
O	10.48809002	0.36233431	5.87746745
O	25.73711804	0.55338918	5.84081336
O	14.23099360	0.47948684	5.66518029
O	29.42803137	0.51827610	5.40071355
O	18.11882919	0.63274944	5.68322207
O	12.38023186	5.76685277	5.95122891
O	27.57580226	5.59564757	5.91018465
O	16.14048325	5.79100909	5.69241206
O	19.94169938	5.70204712	5.71992403
O	12.14677527	2.84901007	6.35919894
O	27.79056435	2.72731920	6.30817024
O	16.14535089	2.90254543	6.41310829
O	20.09539731	2.76796588	6.29765378
O	10.24380684	7.97925044	6.28853525
O	25.70108470	7.97649550	6.35360171
O	14.29152959	7.97438384	6.49794700
O	29.46755462	8.03634600	6.40139396
O	18.05179555	7.94382619	6.39360303
Ti	6.58600096	19.67651472	4.75855784
Ti	6.67844947	30.26453550	4.71090599
Ti	6.60331258	16.76128102	5.49675071
Ti	6.64562103	27.33817202	5.43951729
Ti	2.77461335	19.62743787	4.74949236
Ti	2.82858325	30.17151713	4.77124285
Ti	0.87836118	14.46964340	4.67308478
Ti	0.89270582	24.91320067	4.75490213
Ti	4.77052652	14.45491780	4.79412510
Ti	4.64569764	24.98520091	4.86468631
Ti	0.81209303	11.59176342	5.51353208
Ti	1.00395820	21.96739859	5.37995938
Ti	4.80908666	11.58948384	5.53780796
Ti	4.63411716	21.99290147	5.45436500
Ti	2.81104721	16.69215611	5.36800705
Ti	2.72740319	27.20529376	5.46220955
O	6.72869712	17.88090157	3.89046310
O	6.60154315	28.36411910	3.93383949
O	6.66598971	14.82695145	4.89186429
O	6.55303056	25.36693023	4.88566280
O	6.70790046	11.14897999	5.88972382
O	6.56392993	21.54777067	5.53529148
O	6.48884726	18.50383315	6.31708722
O	6.65034477	29.13502269	6.36881897
O	2.76119509	17.64246182	3.83610341
O	2.72168328	28.21562327	3.94024875
O	0.73501339	12.63844854	3.99055830
O	1.02706307	23.14884820	3.88159879
O	4.77892306	12.65834132	3.97659660
O	4.66639578	23.11668971	3.89496829
O	0.91021570	20.00688602	4.89003993
O	0.89518997	30.48609853	4.95921728
O	4.62332991	20.13263330	4.68596817
O	4.74274984	30.52665550	4.73080401
O	2.85924223	14.76038647	4.77517673
O	2.78238582	25.35626040	4.72902042
O	2.81305456	11.31257800	5.62200335
O	2.70341569	21.46282642	5.71078168
O	0.85044859	16.29625120	5.67767135
O	0.85345770	26.80574398	5.82127909
O	4.69332599	16.30402783	5.59217990
O	4.74307564	26.76950006	5.82801886
O	0.91205755	13.35890024	6.38416768
O	0.97521644	23.65780148	6.31815817
O	4.69340282	13.36969888	6.45118480
O	4.58096070	23.76619523	6.36190655
O	2.94324303	18.44124278	6.21270921
O	2.96950436	28.95910342	6.33428912
Ti	21.90809355	19.69279380	4.67769146
Ti	21.93069778	30.18961580	4.76035529
Ti	8.52109403	14.42414599	4.78885851
Ti	8.45927299	25.05434641	4.77862658
Ti	23.97688985	14.45110704	4.78708196
Ti	23.70766876	24.98798733	4.80144711
Ti	8.51808497	11.51779067	5.53916577
Ti	8.42350695	22.03125945	5.48304074
Ti	23.80703949	11.57759144	5.60739581
Ti	23.79403705	22.07437525	5.46083082
Ti	21.95108102	16.73976552	5.52434675
Ti	21.80322289	27.27133495	5.49715789
Ti	10.32493431	19.73277380	4.65716752
Ti	10.46823086	30.10685370	4.78886351
Ti	25.73048712	19.71309839	4.84904783
Ti	25.72014502	30.22721257	4.82613781
Ti	14.16554285	19.70192198	4.77840971
Ti	14.25399868	30.22478752	4.70083934
Ti	29.42933468	19.66999538	4.83664386
Ti	29.41587892	30.12168060	4.70127220
Ti	18.10412767	19.67896228	4.76826460
Ti	18.05676462	30.19366034	4.83316521
Ti	12.39647928	14.43987339	4.80616130
Ti	12.30866954	24.95777192	4.68033169
Ti	27.61117257	14.38976145	4.71221866
Ti	27.54468513	24.94385317	4.65550551
Ti	16.25785073	14.47802525	4.80752224
Ti	16.13248174	25.02647852	4.75458244
Ti	20.06118091	14.45748181	4.88227020
Ti	19.93503467	24.96793862	4.86466028
Ti	12.23549494	11.50882748	5.48717857
Ti	12.20461922	22.12773237	5.49136842
Ti	27.57924692	11.51423874	5.47136312
Ti	27.65419215	22.00229123	5.46797225
Ti	16.17660296	11.46592545	5.49405085
Ti	16.09767569	22.09348244	5.38678944
Ti	19.95704833	11.56748568	5.33491115
Ti	19.97926475	22.05871127	5.45031764
Ti	10.44604360	16.79347967	5.44308576
Ti	10.45152290	27.20193550	5.49430259
Ti	25.83104032	16.71943881	5.50002534
Ti	25.72013353	27.31089422	5.48827012
Ti	14.27542602	16.70545562	5.73298405
Ti	14.26211751	27.26662433	5.51588070
Ti	29.52242619	16.73654542	5.41664402
Ti	29.47791573	27.19378036	5.36040427
Ti	18.17101143	16.74558294	5.48908498
Ti	17.97061542	27.29329461	5.56340538
O	21.85440733	17.82073181	3.93248594
O	21.83770576	28.35994864	4.01929311
O	8.54128692	12.61907584	3.96777989
O	8.60073996	23.08833548	3.90434314
O	23.86538374	12.59690061	3.96528092
O	23.63281949	23.18483523	3.87892802
O	8.45103786	20.12699944	4.82775408
O	8.57261229	30.53335028	4.69787981
O	23.84336256	20.16671725	4.74492147
O	23.82876450	30.61000584	4.77896113
O	22.04032214	14.86391111	4.82976128
O	21.86620735	25.41077933	4.84068187
O	21.87359860	11.09799957	5.84893472
O	21.88793254	21.51881133	5.70313975
O	8.61134309	16.24146399	5.74965323
O	8.48946454	26.81518439	5.59433724
O	23.87224948	16.29854774	5.81215735
O	23.73559048	26.88298852	5.66569005
O	8.64347810	13.23806199	6.32347711
O	8.33415406	23.77732025	6.37330469
O	23.86600248	13.34763995	6.35745639
O	23.92271985	23.79565831	6.26691328
O	22.26556262	18.49324801	6.41897113
O	21.91845194	29.07394071	6.41911107
O	10.38263575	17.87668847	3.88643220
O	10.55224589	28.33361919	3.92525134
O	25.69029498	17.86468011	3.97124232
O	25.66799971	28.40768116	3.90810084
O	14.30873327	17.87020853	3.96316322
O	14.44180266	28.40529099	3.97351983
O	29.60692073	17.80521232	3.92470797
O	29.64436865	28.24515370	3.81350195
O	18.17373750	17.83982410	3.92315845
O	18.07315947	28.32937677	3.97999671
O	12.33577585	12.53389125	3.86967060
O	12.38729409	23.18632520	3.87327759
O	27.60507046	12.48071941	3.86099790
O	27.48056777	23.00659063	3.95019592
O	16.23250765	12.54919054	3.94716444
O	16.04292652	23.08139039	3.88529766
O	20.10245915	12.68748856	3.86994872
O	19.83095978	23.04767582	3.91283173
O	12.30344369	20.23123239	4.79215274
O	12.32395359	30.63006252	4.71387176
O	27.56144817	20.19434117	4.82656621
O	27.53585599	30.62453268	4.62087036
O	16.16676916	20.10290602	4.85861956
O	16.09716234	30.68162524	4.77832684
O	20.02621433	20.03939554	4.87761552
O	20.01710760	30.54753863	4.74515833
O	10.43577499	14.87882922	5.00913588
O	10.43608669	25.34569493	4.97252411
O	25.81921525	14.99222571	4.73473280
O	25.65535786	25.45767462	4.78341088
O	14.29616173	14.96566272	4.74121614
O	14.20257035	25.39074675	4.69578300
O	29.44930803	14.81149453	4.74197845
O	29.49617626	25.15598354	4.92052539
O	18.13606743	14.77993795	5.01764993
O	17.99267127	25.33908179	4.85419577
O	10.33777219	10.99215284	5.77092583
O	10.34650017	21.54856511	5.77864310
O	25.75195441	11.11482778	5.90648296
O	25.60865682	21.55172943	5.73580535
O	14.24393860	11.02153846	5.71786559
O	14.15210551	21.62787123	5.74604501
O	29.44227841	11.05731089	5.94122300
O	29.58100915	21.45136041	5.70268239
O	18.15180002	11.04547838	5.76281360
O	18.06643558	21.55422893	5.58805572
O	12.32622784	16.37838282	5.69863087
O	12.41155435	26.83537792	5.91045557
O	27.67884051	16.15855398	5.93157131
O	27.57631049	26.78607742	5.58566839
O	16.25127389	16.31204975	5.66228404
O	16.14976678	26.79882899	5.87498519
O	20.08686071	16.30612109	5.75863732
O	19.91127120	26.84163349	5.83246086
O	12.49206338	13.28083555	6.31551017
O	12.20149408	23.86938729	6.29954061
O	27.60055492	13.23676816	6.29353866
O	27.57088636	23.86310246	6.39842125
O	16.23344976	13.30336163	6.40049227
O	16.20865211	23.78339624	6.34728799
O	20.02123827	13.16533122	6.36545233
O	20.07503331	23.72882712	6.38233279
O	10.38719484	18.64688550	6.36076594
O	10.35300009	28.90832790	6.43980029
O	25.74427372	18.49556598	6.36133256
O	25.75600151	28.97336017	6.34677490
O	14.16110825	18.56643606	6.41350063
O	14.31347493	28.97983351	6.32472091
O	29.36120523	18.43372960	6.40059622
O	29.12185187	28.87177637	6.25692340
O	18.24039404	18.52472998	6.25647591
O	17.98565381	29.06000258	6.45303928
H	14.97209658	14.07872121	8.23000308
H	15.35748580	15.26249964	11.26879140
H	14.55365555	18.65587091	8.78076384
O	14.36138323	16.11365451	7.54571524
O	14.85465442	14.57423855	9.08514280
C	14.69291290	15.82670108	8.77047186
C	14.83979497	16.79437056	9.85925489
C	15.24308185	16.33704112	11.14070329
C	14.68720298	18.21699771	9.74872107
N	13.76319284	19.35314189	15.60736049
N	15.15702697	22.76549322	17.26296211
N	15.77665462	21.17404641	14.72609721
N	13.15603886	21.00439247	18.14185829
C	20.52186934	24.44271682	15.34663426
C	14.12254921	24.42324739	22.83724982
C	8.34071308	17.88705166	17.14417203
C	18.13660684	24.10019036	15.12855877
C	13.62510216	23.82713743	20.56047646
C	10.67694095	18.28932038	17.50675005
C	19.21429925	25.95400421	13.96702537
C	12.22167373	25.47133588	21.72840507
C	9.51204689	16.62196798	18.85302875
C	14.95686786	19.24279764	13.45906347
C	16.95813180	23.20211234	15.49639126
C	13.86664234	22.98252874	19.33474653
C	11.92518910	19.01981687	17.22254245
C	15.68986712	20.44317728	13.61621311
C	16.67306654	22.18942232	14.59778877
C	13.00696797	21.89073447	19.14011017
C	12.20415927	20.04709944	18.17941918
C	16.57429374	21.03352932	12.62000357
C	17.10229801	22.13571071	13.21221200
C	11.93809956	21.45426730	19.97874630
C	11.45999666	20.32288628	19.37372742
C	14.05105560	18.71775412	14.41354322
C	16.23839973	23.41237406	16.73468952
C	14.88023140	23.40118206	18.51159026
C	12.65259089	18.70025772	16.11248907
C	13.16698855	17.57251571	14.21299939
C	16.69716775	24.37908693	17.66404701
C	15.89168305	24.33509506	18.77297738
C	12.29422010	17.60800003	15.27444414
H	13.24591530	16.93342731	13.34168297
H	17.57587600	24.97975986	17.66919420
H	16.06964954	24.90319169	19.70128540
H	11.46228502	16.89578500	15.41213386
H	16.78829929	20.67871057	11.61534272
H	17.84455785	22.79109217	12.68791205
H	11.67618519	21.87510853	20.94686714
H	10.71628303	19.58866347	19.70718971
H	19.17338597	26.91480341	13.46958869
H	11.36617195	26.15282527	21.80196779
H	9.57819015	15.80618615	19.61574436
H	21.48475765	24.07639685	15.81638916
H	14.76597320	24.30716013	23.73745027
H	7.43669266	18.00322464	16.57785237
H	15.35897036	20.88497635	15.62612015
H	13.94702467	21.10176263	17.47950762
C	21.62860841	26.49520320	14.45331138
H	22.10242992	26.52593928	13.43387220
H	22.33752611	26.16049891	15.23484219
H	21.37124406	27.50373663	14.74855543
C	19.50798057	22.38276567	16.39924139
H	18.86688015	21.67852438	15.86633973
H	19.00830668	22.64470101	17.36059252
H	20.49370915	21.98456356	16.50787163
C	16.72288584	25.63497029	13.71458444
H	16.24869411	24.85878499	13.10652105
H	16.87923290	26.45927433	13.03786413
H	16.01391737	25.85479709	14.49918812
C	11.98337488	16.90195886	19.15689768
H	11.86608637	16.30441631	20.06124171
H	12.57300152	17.76919912	19.45603455
H	12.53893359	16.33115209	18.41031932
C	9.43563056	19.53754006	15.67078559
H	8.49028598	19.48304574	15.13231132
H	10.16819860	19.22285352	14.94056841
H	9.66910199	20.55589910	15.86909545
C	7.11142359	16.01660493	18.30484696
H	6.60176489	16.34813557	19.24316217
H	7.47622148	14.97138370	18.38086377
H	6.47082457	16.21382018	17.43337056
C	11.65979653	24.97305693	19.46114542
H	10.60114602	24.77830469	19.68533995
H	11.90684764	24.39275203	18.56916405
H	11.73899319	26.03515314	19.21980670
C	15.52676333	22.67638844	21.66016546
H	15.18769951	21.67264057	21.97788093
H	16.25751729	22.82366307	22.48961442
H	16.11844061	22.62623225	20.73341244
C	12.85894433	26.23428814	24.05517346
H	13.78958945	26.43871409	24.58770480
H	12.22913180	25.75107638	24.84964759
H	12.32777635	27.14648803	23.76463339
C	20.42945222	25.64247404	14.56146305
C	19.40302386	23.66382964	15.57707809
C	18.06564334	25.19372146	14.27485588
C	12.55899604	24.75682946	20.61816055
C	14.41823929	23.67584713	21.72425158
C	13.01823078	25.34495690	22.88249215
C	10.69698138	17.33634261	18.52921937
C	9.47842169	18.57488760	16.79046974
C	8.32610071	16.84655829	18.10671231
H	15.64638298	16.66343861	13.23894538
H	14.65265868	20.17015273	10.82284432
C	15.02180887	18.52188414	12.19463482
C	15.35649623	17.11982931	12.26394554
C	14.71386184	19.03594751	10.91659223

Ti O H C N 0
6-31G*
****

