%chk=f00010708.chk
%mem=24GB
%nproc=12
#p b3lyp/6-31G*

title

0 1
Ti	2.81187400	0.19704000	1.10336000
Ti	0.90594400	5.44057000	1.10336000
Ti	4.71781400	5.44057000	1.10336000
Ti	0.90594400	2.47241000	1.99114000
Ti	4.71781400	2.47241000	1.99114000
Ti	2.81187400	7.71594000	1.99115000
O	2.81187400	8.81302000	0.37332000
O	0.90594400	3.56949000	0.37332000
O	4.71781400	3.56949000	0.37332000
O	0.90594400	0.60134000	1.26110000
O	4.71781400	0.60134000	1.26110000
O	2.81187400	5.84486000	1.26111000
O	2.81187400	2.06812000	1.83340000
O	0.90594400	7.31164000	1.83340000
O	4.71781400	7.31164000	1.83340000
O	0.90594400	4.34349000	2.72118000
O	4.71781400	4.34349000	2.72118000
O	2.81187400	9.58701000	2.72118000
Ti	6.62374588	0.19704000	1.10336000
Ti	21.87123776	0.19704000	1.10336000
Ti	8.52968588	5.44057000	1.10336000
Ti	23.77717776	5.44057000	1.10336000
Ti	8.52968588	2.47241000	1.99114000
Ti	23.77717776	2.47241000	1.99114000
Ti	6.62374588	7.71594000	1.99115000
Ti	21.87123776	7.71594000	1.99115000
Ti	10.43561588	0.19704000	1.10336000
Ti	25.68310776	0.19704000	1.10336000
Ti	14.24749588	0.19704000	1.10336000
Ti	29.49498776	0.19704000	1.10336000
Ti	18.05936588	0.19704000	1.10336000
Ti	12.34155588	5.44057000	1.10336000
Ti	27.58904776	5.44057000	1.10336000
Ti	16.15343588	5.44057000	1.10336000
Ti	19.96530588	5.44057000	1.10336000
Ti	12.34155588	2.47241000	1.99114000
Ti	27.58904776	2.47241000	1.99114000
Ti	16.15343588	2.47241000	1.99114000
Ti	19.96530588	2.47241000	1.99114000
Ti	10.43561588	7.71594000	1.99115000
Ti	25.68310776	7.71594000	1.99115000
Ti	14.24749588	7.71594000	1.99115000
Ti	29.49498776	7.71594000	1.99115000
Ti	18.05936588	7.71594000	1.99115000
O	6.62374588	8.81302000	0.37332000
O	21.87123776	8.81302000	0.37332000
O	8.52968588	3.56949000	0.37332000
O	23.77717776	3.56949000	0.37332000
O	8.52968588	0.60134000	1.26110000
O	23.77717776	0.60134000	1.26110000
O	6.62374588	5.84486000	1.26111000
O	21.87123776	5.84486000	1.26111000
O	6.62374588	2.06812000	1.83340000
O	21.87123776	2.06812000	1.83340000
O	8.52968588	7.31164000	1.83340000
O	23.77717776	7.31164000	1.83340000
O	8.52968588	4.34349000	2.72118000
O	23.77717776	4.34349000	2.72118000
O	6.62374588	9.58701000	2.72118000
O	21.87123776	9.58701000	2.72118000
O	10.43561588	8.81302000	0.37332000
O	25.68310776	8.81302000	0.37332000
O	14.24749588	8.81302000	0.37332000
O	29.49498776	8.81302000	0.37332000
O	18.05936588	8.81302000	0.37332000
O	12.34155588	3.56949000	0.37332000
O	27.58904776	3.56949000	0.37332000
O	16.15343588	3.56949000	0.37332000
O	19.96530588	3.56949000	0.37332000
O	12.34155588	0.60134000	1.26110000
O	27.58904776	0.60134000	1.26110000
O	16.15343588	0.60134000	1.26110000
O	19.96530588	0.60134000	1.26110000
O	10.43561588	5.84486000	1.26111000
O	25.68310776	5.84486000	1.26111000
O	14.24749588	5.84486000	1.26111000
O	29.49498776	5.84486000	1.26111000
O	18.05936588	5.84486000	1.26111000
O	10.43561588	2.06812000	1.83340000
O	25.68310776	2.06812000	1.83340000
O	14.24749588	2.06812000	1.83340000
O	29.49498776	2.06812000	1.83340000
O	18.05936588	2.06812000	1.83340000
O	12.34155588	7.31164000	1.83340000
O	27.58904776	7.31164000	1.83340000
O	16.15343588	7.31164000	1.83340000
O	19.96530588	7.31164000	1.83340000
O	12.34155588	4.34349000	2.72118000
O	27.58904776	4.34349000	2.72118000
O	16.15343588	4.34349000	2.72118000
O	19.96530588	4.34349000	2.72118000
O	10.43561588	9.58701000	2.72118000
O	25.68310776	9.58701000	2.72118000
O	14.24749588	9.58701000	2.72118000
O	29.49498776	9.58701000	2.72118000
O	18.05936588	9.58701000	2.72118000
Ti	2.81187400	10.68408607	1.10336000
Ti	2.81187400	21.17113214	1.10336000
Ti	0.90594400	15.92761607	1.10336000
Ti	0.90594400	26.41466214	1.10336000
Ti	4.71781400	15.92761607	1.10336000
Ti	4.71781400	26.41466214	1.10336000
Ti	0.90594400	12.95945607	1.99114000
Ti	0.90594400	23.44650214	1.99114000
Ti	4.71781400	12.95945607	1.99114000
Ti	4.71781400	23.44650214	1.99114000
Ti	2.81187400	18.20298607	1.99115000
Ti	2.81187400	28.69003214	1.99115000
O	2.81187400	19.30006607	0.37332000
O	2.81187400	29.78711214	0.37332000
O	0.90594400	14.05653607	0.37332000
O	0.90594400	24.54358214	0.37332000
O	4.71781400	14.05653607	0.37332000
O	4.71781400	24.54358214	0.37332000
O	0.90594400	11.08838607	1.26110000
O	0.90594400	21.57543214	1.26110000
O	4.71781400	11.08838607	1.26110000
O	4.71781400	21.57543214	1.26110000
O	2.81187400	16.33190607	1.26111000
O	2.81187400	26.81895214	1.26111000
O	2.81187400	12.55516607	1.83340000
O	2.81187400	23.04221214	1.83340000
O	0.90594400	17.79868607	1.83340000
O	0.90594400	28.28573214	1.83340000
O	4.71781400	17.79868607	1.83340000
O	4.71781400	28.28573214	1.83340000
O	0.90594400	14.83053607	2.72118000
O	0.90594400	25.31758214	2.72118000
O	4.71781400	14.83053607	2.72118000
O	4.71781400	25.31758214	2.72118000
O	2.81187400	20.07405607	2.72118000
O	2.81187400	30.56110214	2.72118000
Ti	6.62374588	10.68408607	1.10336000
Ti	6.62374588	21.17113214	1.10336000
Ti	21.87123776	10.68408607	1.10336000
Ti	21.87123776	21.17113214	1.10336000
Ti	8.52968588	15.92761607	1.10336000
Ti	8.52968588	26.41466214	1.10336000
Ti	23.77717776	15.92761607	1.10336000
Ti	23.77717776	26.41466214	1.10336000
Ti	8.52968588	12.95945607	1.99114000
Ti	8.52968588	23.44650214	1.99114000
Ti	23.77717776	12.95945607	1.99114000
Ti	23.77717776	23.44650214	1.99114000
Ti	6.62374588	18.20298607	1.99115000
Ti	6.62374588	28.69003214	1.99115000
Ti	21.87123776	18.20298607	1.99115000
Ti	21.87123776	28.69003214	1.99115000
Ti	10.43561588	10.68408607	1.10336000
Ti	10.43561588	21.17113214	1.10336000
Ti	25.68310776	10.68408607	1.10336000
Ti	25.68310776	21.17113214	1.10336000
Ti	14.24749588	10.68408607	1.10336000
Ti	14.24749588	21.17113214	1.10336000
Ti	29.49498776	10.68408607	1.10336000
Ti	29.49498776	21.17113214	1.10336000
Ti	18.05936588	10.68408607	1.10336000
Ti	18.05936588	21.17113214	1.10336000
Ti	12.34155588	15.92761607	1.10336000
Ti	12.34155588	26.41466214	1.10336000
Ti	27.58904776	15.92761607	1.10336000
Ti	27.58904776	26.41466214	1.10336000
Ti	16.15343588	15.92761607	1.10336000
Ti	16.15343588	26.41466214	1.10336000
Ti	19.96530588	15.92761607	1.10336000
Ti	19.96530588	26.41466214	1.10336000
Ti	12.34155588	12.95945607	1.99114000
Ti	12.34155588	23.44650214	1.99114000
Ti	27.58904776	12.95945607	1.99114000
Ti	27.58904776	23.44650214	1.99114000
Ti	16.15343588	12.95945607	1.99114000
Ti	16.15343588	23.44650214	1.99114000
Ti	19.96530588	12.95945607	1.99114000
Ti	19.96530588	23.44650214	1.99114000
Ti	10.43561588	18.20298607	1.99115000
Ti	10.43561588	28.69003214	1.99115000
Ti	25.68310776	18.20298607	1.99115000
Ti	25.68310776	28.69003214	1.99115000
Ti	14.24749588	18.20298607	1.99115000
Ti	14.24749588	28.69003214	1.99115000
Ti	29.49498776	18.20298607	1.99115000
Ti	29.49498776	28.69003214	1.99115000
Ti	18.05936588	18.20298607	1.99115000
Ti	18.05936588	28.69003214	1.99115000
O	6.62374588	19.30006607	0.37332000
O	6.62374588	29.78711214	0.37332000
O	21.87123776	19.30006607	0.37332000
O	21.87123776	29.78711214	0.37332000
O	8.52968588	14.05653607	0.37332000
O	8.52968588	24.54358214	0.37332000
O	23.77717776	14.05653607	0.37332000
O	23.77717776	24.54358214	0.37332000
O	8.52968588	11.08838607	1.26110000
O	8.52968588	21.57543214	1.26110000
O	23.77717776	11.08838607	1.26110000
O	23.77717776	21.57543214	1.26110000
O	6.62374588	16.33190607	1.26111000
O	6.62374588	26.81895214	1.26111000
O	21.87123776	16.33190607	1.26111000
O	21.87123776	26.81895214	1.26111000
O	6.62374588	12.55516607	1.83340000
O	6.62374588	23.04221214	1.83340000
O	21.87123776	12.55516607	1.83340000
O	21.87123776	23.04221214	1.83340000
O	8.52968588	17.79868607	1.83340000
O	8.52968588	28.28573214	1.83340000
O	23.77717776	17.79868607	1.83340000
O	23.77717776	28.28573214	1.83340000
O	8.52968588	14.83053607	2.72118000
O	8.52968588	25.31758214	2.72118000
O	23.77717776	14.83053607	2.72118000
O	23.77717776	25.31758214	2.72118000
O	6.62374588	20.07405607	2.72118000
O	6.62374588	30.56110214	2.72118000
O	21.87123776	20.07405607	2.72118000
O	21.87123776	30.56110214	2.72118000
O	10.43561588	19.30006607	0.37332000
O	10.43561588	29.78711214	0.37332000
O	25.68310776	19.30006607	0.37332000
O	25.68310776	29.78711214	0.37332000
O	14.24749588	19.30006607	0.37332000
O	14.24749588	29.78711214	0.37332000
O	29.49498776	19.30006607	0.37332000
O	29.49498776	29.78711214	0.37332000
O	18.05936588	19.30006607	0.37332000
O	18.05936588	29.78711214	0.37332000
O	12.34155588	14.05653607	0.37332000
O	12.34155588	24.54358214	0.37332000
O	27.58904776	14.05653607	0.37332000
O	27.58904776	24.54358214	0.37332000
O	16.15343588	14.05653607	0.37332000
O	16.15343588	24.54358214	0.37332000
O	19.96530588	14.05653607	0.37332000
O	19.96530588	24.54358214	0.37332000
O	12.34155588	11.08838607	1.26110000
O	12.34155588	21.57543214	1.26110000
O	27.58904776	11.08838607	1.26110000
O	27.58904776	21.57543214	1.26110000
O	16.15343588	11.08838607	1.26110000
O	16.15343588	21.57543214	1.26110000
O	19.96530588	11.08838607	1.26110000
O	19.96530588	21.57543214	1.26110000
O	10.43561588	16.33190607	1.26111000
O	10.43561588	26.81895214	1.26111000
O	25.68310776	16.33190607	1.26111000
O	25.68310776	26.81895214	1.26111000
O	14.24749588	16.33190607	1.26111000
O	14.24749588	26.81895214	1.26111000
O	29.49498776	16.33190607	1.26111000
O	29.49498776	26.81895214	1.26111000
O	18.05936588	16.33190607	1.26111000
O	18.05936588	26.81895214	1.26111000
O	10.43561588	12.55516607	1.83340000
O	10.43561588	23.04221214	1.83340000
O	25.68310776	12.55516607	1.83340000
O	25.68310776	23.04221214	1.83340000
O	14.24749588	12.55516607	1.83340000
O	14.24749588	23.04221214	1.83340000
O	29.49498776	12.55516607	1.83340000
O	29.49498776	23.04221214	1.83340000
O	18.05936588	12.55516607	1.83340000
O	18.05936588	23.04221214	1.83340000
O	12.34155588	17.79868607	1.83340000
O	12.34155588	28.28573214	1.83340000
O	27.58904776	17.79868607	1.83340000
O	27.58904776	28.28573214	1.83340000
O	16.15343588	17.79868607	1.83340000
O	16.15343588	28.28573214	1.83340000
O	19.96530588	17.79868607	1.83340000
O	19.96530588	28.28573214	1.83340000
O	12.34155588	14.83053607	2.72118000
O	12.34155588	25.31758214	2.72118000
O	27.58904776	14.83053607	2.72118000
O	27.58904776	25.31758214	2.72118000
O	16.15343588	14.83053607	2.72118000
O	16.15343588	25.31758214	2.72118000
O	19.96530588	14.83053607	2.72118000
O	19.96530588	25.31758214	2.72118000
O	10.43561588	20.07405607	2.72118000
O	10.43561588	30.56110214	2.72118000
O	25.68310776	20.07405607	2.72118000
O	25.68310776	30.56110214	2.72118000
O	14.24749588	20.07405607	2.72118000
O	14.24749588	30.56110214	2.72118000
O	29.49498776	20.07405607	2.72118000
O	29.49498776	30.56110214	2.72118000
O	18.05936588	20.07405607	2.72118000
O	18.05936588	30.56110214	2.72118000
Ti	6.57283864	9.23600106	4.79768716
Ti	6.60653098	6.27203368	5.47629043
Ti	2.79012214	9.28952674	4.75984373
Ti	0.80590582	4.02126459	4.96550824
Ti	4.79339988	3.96080348	4.82332830
Ti	0.87529531	1.04853607	5.49719596
Ti	4.71459555	1.07501049	5.61012770
Ti	2.79310139	6.33147957	5.50334493
O	6.42575385	7.28038363	3.87756192
O	6.67859980	4.41729435	4.77971277
O	6.52878836	0.60208105	5.83025978
O	6.47639694	8.06477457	6.31569520
O	2.75835845	7.36371264	3.93341737
O	0.80316792	2.18224304	3.98349302
O	4.66337868	2.12363100	4.03591572
O	0.91827117	9.79739489	4.79288077
O	4.71447634	9.68949631	4.63462280
O	2.78232522	4.48146573	4.98201054
O	2.79111534	0.56816079	5.72543052
O	0.82942486	5.76729887	5.84209687
O	4.70457655	5.78878640	5.86961574
O	0.76929971	2.76374536	6.42900100
O	4.82876391	2.92610361	6.38433480
O	2.49266210	8.08574787	6.28199915
Ti	21.71496280	9.17824870	4.56348096
Ti	8.53433867	4.00815472	4.76781962
Ti	23.77961705	3.98891555	4.66648813
Ti	8.39532583	1.09188244	5.48898399
Ti	23.75658232	1.10528533	5.50814754
Ti	21.73826208	6.24566040	5.36886361
Ti	10.44673095	9.17858892	4.79669910
Ti	25.63552465	9.17301805	4.81381571
Ti	14.27733186	9.22469546	4.68661984
Ti	29.53699043	9.22834520	4.67994588
Ti	17.91465478	9.28303880	4.77121510
Ti	12.35126647	3.93451405	4.75592968
Ti	27.53075766	3.98719744	4.79077207
Ti	16.16619941	3.87820915	4.67202974
Ti	19.92332055	3.88814007	4.78726452
Ti	12.30744946	1.03687850	5.52456115
Ti	27.59219258	1.06242186	5.49789743
Ti	16.02327298	0.99521608	5.60280593
Ti	19.91585881	0.97702547	5.50083397
Ti	10.51105696	6.25262230	5.45778081
Ti	25.55757646	6.26508627	5.49619701
Ti	14.30885284	6.33759034	5.56589178
Ti	29.45858697	6.23557352	5.54444399
Ti	17.87970416	6.25079032	5.35045791
O	21.87522756	7.35500432	3.93603141
O	8.51229206	2.15288658	3.95626405
O	23.74777169	2.12773632	3.94488529
O	8.57565981	9.58940508	4.68975977
O	23.70172064	9.58643060	5.01078014
O	21.77701885	4.36215241	4.74308969
O	21.78808625	0.58348509	5.89318613
O	8.59054928	5.83020459	5.63968291
O	23.64595773	5.76358453	5.74325991
O	8.36640313	2.81502665	6.31647946
O	23.88923987	2.85756780	6.32955820
O	21.57948354	7.89574293	6.40783101
O	10.66520966	7.32424931	3.97536547
O	25.84568839	7.37161892	3.97218659
O	14.20152689	7.35712833	3.97114116
O	29.51878642	7.17026991	3.92101126
O	17.99077476	7.44089829	3.88326671
O	12.22058040	2.09299626	3.94301493
O	27.61936276	2.10191316	3.90155095
O	16.08134132	2.01252747	3.96839110
O	19.84534454	2.09887405	3.94367591
O	12.37904553	9.74550564	4.64615660
O	27.59153004	9.61923686	4.83932630
O	16.08556762	9.73276531	4.86296731
O	19.87237395	9.63542224	4.86507596
O	10.48950950	4.39153903	4.70911264
O	25.65286995	4.42616846	4.82204481
O	14.31498983	4.30115336	4.70964164
O	29.37499242	4.42113053	4.73859623
O	18.04730231	4.23005465	4.89988674
O	10.40988235	0.58251902	5.83836879
O	25.66075984	0.61179371	5.51997318
O	14.11144395	0.53430074	5.87900235
O	29.50293955	0.50151064	5.80779036
O	18.01330460	0.47013549	5.84418289
O	12.42843182	5.68478043	5.80507441
O	27.51315245	5.78404298	5.90061424
O	16.12102189	5.68892536	5.80062502
O	19.81194252	5.78100918	5.69418293
O	12.28619817	2.82718729	6.31168788
O	27.57527745	2.74178400	6.35008224
O	16.19920198	2.79525636	6.44468336
O	19.87410805	2.75408684	6.44273711
O	10.47294739	7.91825882	6.48005127
O	25.42426858	7.96588269	6.29317564
O	14.41723361	8.01332939	6.43153022
O	29.45649484	8.10085743	6.37236385
O	17.94935379	8.10962355	6.36588774
Ti	6.64745034	19.66791652	4.75475243
Ti	6.62898502	30.18333562	4.72227373
Ti	6.67978152	16.70905448	5.39110421
Ti	6.63461000	27.25953273	5.44748681
Ti	2.98003436	19.78008793	4.80520586
Ti	2.86788190	30.18984261	4.72552958
Ti	0.93871197	14.56346350	4.85167802
Ti	0.90607017	25.00762078	4.80948523
Ti	4.69277995	14.42212431	4.64972134
Ti	4.71653798	24.94926259	4.68391501
Ti	0.95693925	11.63465384	5.47924013
Ti	0.91144438	22.13038042	5.45188334
Ti	4.70003529	11.56926664	5.69264767
Ti	4.76682004	22.15176661	5.66090573
Ti	2.79901901	16.89889521	5.55335285
Ti	2.86434938	27.26547808	5.54233623
O	6.49902539	17.69406504	3.89071122
O	6.79789638	28.34417485	3.96443679
O	6.57831759	14.76261156	4.76420643
O	6.65290009	25.39945238	4.72520740
O	6.69127927	11.03069843	5.69940823
O	6.65540401	21.56940187	5.80811730
O	6.72389336	18.44988974	6.37180550
O	6.39310088	28.96124771	6.36940631
O	2.85317773	17.91981358	3.99575791
O	2.93522179	28.35223570	3.86315083
O	0.91909229	12.66639321	3.93015503
O	0.98279637	23.15858600	3.94998628
O	4.62030101	12.46861035	3.93523741
O	4.86574261	23.07336556	3.96677212
O	0.99050965	20.14881539	4.87726081
O	0.91143024	30.65385992	4.71709875
O	4.85102039	20.18528462	4.71034292
O	4.72354291	30.74927615	4.73692859
O	2.78301515	14.98341564	4.78250093
O	2.80866766	25.42630877	4.77234473
O	2.83810582	11.00472644	5.99095977
O	2.85695785	21.64902359	5.87162609
O	0.85846929	16.39522039	5.82086322
O	0.95271404	26.88635094	5.80893352
O	4.74936415	16.23515282	5.70494802
O	4.81435328	26.79615009	5.67915383
O	0.86511231	13.37686561	6.35468178
O	1.09187544	23.80358492	6.37054413
O	4.71436283	13.34846042	6.34095380
O	4.77150086	23.92881185	6.33406531
O	3.03951936	18.59990587	6.44100964
O	2.80987240	29.12433105	6.39994712
Ti	22.02783633	19.65322828	4.73815893
Ti	21.79067417	30.23617901	4.78760755
Ti	8.47542214	14.36651998	4.77229044
Ti	8.70510991	25.00832623	4.81632127
Ti	23.86060958	14.38771985	4.72202013
Ti	23.70401863	24.95640699	4.81316363
Ti	8.62351958	11.40134874	5.34548265
Ti	8.57534713	22.01626065	5.45718367
Ti	23.70391439	11.51439996	5.56685652
Ti	23.85876812	22.05141938	5.47943285
Ti	21.94209791	16.79277921	5.59337995
Ti	21.69205465	27.31074440	5.56655246
Ti	10.46800677	19.73411238	4.80760448
Ti	10.33835422	30.30761369	4.67981532
Ti	25.75357300	19.74285061	4.69012400
Ti	25.70067679	30.31378679	4.73783231
Ti	14.30495000	19.79113270	4.69711496
Ti	14.15772978	30.26081500	4.75078872
Ti	29.54612717	19.78899852	4.65490126
Ti	29.51965181	30.20672979	4.65965329
Ti	18.02108608	19.72000781	4.78672342
Ti	17.97500275	30.20254424	4.76158646
Ti	12.32270925	14.52857016	4.72314090
Ti	12.35640610	25.00453868	4.74432183
Ti	27.60129001	14.52320375	4.75346079
Ti	27.61524200	25.02785541	4.77216117
Ti	16.24897707	14.63120780	4.75620041
Ti	16.13344352	25.01883638	4.83704241
Ti	20.07079659	14.49047727	4.77442932
Ti	19.90330271	24.88836037	4.76272267
Ti	12.40256225	11.58122297	5.48579989
Ti	12.38358334	22.04044862	5.48645224
Ti	27.52868741	11.54822606	5.52426075
Ti	27.55235222	22.14329898	5.58868539
Ti	16.11514967	11.75068251	5.60351226
Ti	16.17700960	22.07835999	5.44578809
Ti	19.87520316	11.56668667	5.41997088
Ti	20.02088307	21.95213316	5.52075081
Ti	10.40411012	16.88011412	5.55122948
Ti	10.40145037	27.32820788	5.57241557
Ti	25.68370786	16.87888472	5.60691831
Ti	25.64272203	27.31001194	5.41772669
Ti	14.25656451	16.76849063	5.68940728
Ti	14.11961730	27.25568314	5.57315855
Ti	29.42264346	16.83098019	5.43016835
Ti	29.47708955	27.34418037	5.54070364
Ti	18.22320942	16.76130333	5.44237630
Ti	17.99446580	27.29768189	5.59225390
O	21.89036039	17.76170752	3.95074741
O	21.68922982	28.44826807	4.02735671
O	8.42226231	12.61169886	3.87069478
O	8.44162329	23.11692023	3.95370691
O	23.64715523	12.42646714	3.89401873
O	24.11078664	23.06018651	3.95219129
O	8.61514171	20.15133875	4.85379925
O	8.47001699	30.72650710	4.67663512
O	23.88864881	20.09571605	4.59190264
O	23.67956831	30.66780488	4.86750663
O	21.92954812	14.91345315	4.66560687
O	21.79952479	25.55858190	4.69912692
O	21.78508689	11.05039650	5.67724744
O	21.93794392	21.42182850	5.68035079
O	8.50550036	16.26232591	5.73379255
O	8.59618502	26.75843156	5.83790041
O	23.81402612	16.16729616	5.91211505
O	23.81252592	26.82985057	5.71910104
O	8.51068433	13.24442488	6.30339805
O	8.81135572	23.75995635	6.44663088
O	23.97120982	13.28700892	6.27442783
O	23.44834000	23.80399539	6.34739195
O	22.01537460	18.54872237	6.37362674
O	21.95183197	29.03015215	6.42619921
O	10.70307944	17.89955429	3.97110523
O	10.34791177	28.27173263	3.96020564
O	25.75733550	17.79609773	3.99410511
O	25.51377899	28.42718196	3.90124170
O	14.38439069	17.90268677	4.04882544
O	14.24529190	28.31207980	3.95258999
O	29.64417055	17.81209521	3.86405111
O	29.36612496	28.24877403	3.94624482
O	18.21635718	17.98054021	3.94351703
O	18.03379761	28.27458809	3.92593214
O	12.42121254	12.59008319	3.90641781
O	12.32299509	23.07207411	3.91154480
O	27.76589843	12.60517988	3.90750300
O	27.63528679	23.16608127	3.96943923
O	16.09531862	12.63689081	3.89757949
O	16.23795109	23.23377440	3.93847809
O	19.86752082	12.58164767	3.89444495
O	20.05317124	23.07501538	3.96591121
O	12.43973055	20.20456634	4.91036795
O	12.26282701	30.62681921	4.82090218
O	27.64963651	20.26222683	4.75229805
O	27.62173604	30.59959404	4.75533706
O	16.15551760	20.14683517	4.81788405
O	16.10397488	30.64055270	4.79560766
O	19.96506040	19.98678445	4.91755613
O	19.91131887	30.54241548	4.81537606
O	10.46138183	14.85918812	4.83194019
O	10.45880656	25.47041199	4.72795265
O	25.75206295	15.01898344	4.84777954
O	25.70187390	25.34699473	4.96301832
O	14.23512514	14.95444302	4.72077241
O	14.24619583	25.57065791	4.58853166
O	29.50316446	14.96883280	4.85365850
O	29.50730523	25.36027304	5.06104068
O	18.14274294	14.88805083	4.81365328
O	18.05394272	25.38428915	4.79888965
O	10.47256903	11.05140851	5.54651040
O	10.45850892	21.54223651	5.81520406
O	25.65397594	11.05168584	5.84674774
O	25.73551185	21.52905178	5.81382358
O	14.27590243	10.91485874	6.00964890
O	14.30597686	21.68530561	5.72716013
O	29.48013827	11.03480762	5.68223225
O	29.48065717	21.78143269	5.88627872
O	17.98183495	11.14827158	5.61737957
O	18.06916241	21.54550725	5.69193216
O	12.28021519	16.34194581	5.68940275
O	12.31082588	26.75119044	5.92617283
O	27.54422388	16.32604955	5.99711271
O	27.61587022	26.90075217	5.60552904
O	16.24231061	16.45391600	5.41174115
O	16.02564449	26.75505561	5.90780359
O	20.13354414	16.30483441	5.97054939
O	19.91081848	26.68260608	5.82826191
O	12.48643165	13.33295121	6.31943862
O	12.22464308	23.86670228	6.28694575
O	27.43454272	13.33809656	6.22864645
O	27.49147474	23.93239195	6.41678290
O	16.10411890	13.46472206	6.33200446
O	16.45522869	23.82816821	6.28896546
O	20.08693154	13.24699730	6.30713164
O	20.04896772	23.66689247	6.43971043
O	10.34270484	18.51763532	6.38205931
O	10.22590159	29.07644156	6.29288579
O	25.69712033	18.61660879	6.29602796
O	25.49391396	29.04472223	6.31998946
O	14.37184333	18.58920332	6.40310935
O	14.12766366	29.11334103	6.37909153
O	29.29857746	18.59855749	6.26422493
O	29.54453394	29.00937167	6.39198438
O	18.10763692	18.45507335	6.39112190
O	18.10378921	29.03924875	6.37773263
H	14.77227294	13.82269648	8.26358532
H	13.94729873	15.05752387	11.39468416
H	14.42292350	18.35879703	8.63668299
O	14.39278049	15.97833652	7.46825812
O	14.56609936	14.41914791	9.06583538
C	14.35109448	15.66668261	8.72869743
C	14.03859785	16.57613637	9.81674385
C	13.94748844	16.15156986	11.15483623
C	14.17830029	17.96700929	9.61153078
N	12.89840568	19.58844784	15.52341229
N	15.51129322	22.55127400	16.99461148
N	14.96332102	21.08334401	14.39556802
N	13.33228011	20.94442625	18.15669298
C	20.17121846	23.76933415	13.49318856
C	16.38542004	23.28424476	22.81834353
C	8.23888059	18.26294313	19.08556998
C	17.83837814	23.63263320	14.17993030
C	15.16413872	23.17973633	20.68593093
C	10.49979662	18.32904399	18.27171462
C	18.58052582	25.51469060	12.86775659
C	14.84120925	25.01001895	22.20242292
C	9.68279078	16.31016619	19.18692325
C	13.68823588	19.26560148	13.18650804
C	16.72916636	22.88158492	14.91990735
C	14.80366204	22.57042875	19.34529225
C	11.67689819	19.08571673	17.65797070
C	14.62794296	20.34442573	13.29754961
C	16.01349689	21.95286332	14.11563416
C	13.79263049	21.62512030	19.26267046
C	12.36679257	20.02387918	18.52190158
C	15.58911457	20.67301788	12.28717755
C	16.38901415	21.69652073	12.77695485
C	13.07071012	21.12298909	20.36854108
C	12.21319095	20.13474465	19.96024961
C	12.83433358	18.91699382	14.28796295
C	16.55737181	23.14011030	16.28090285
C	15.62092541	22.99442944	18.31019670
C	11.86180450	18.99781460	16.26954407
C	11.77935521	17.96777118	14.27465388
C	17.28114168	24.01686125	17.19051794
C	16.75770580	23.86474570	18.45105137
C	11.15361218	18.03666350	15.51573893
H	11.47124756	17.32699569	13.45515821
H	18.19006139	24.63083798	17.15639440
H	17.09216161	24.32738815	19.37185034
H	10.19579227	17.59217533	15.73565598
H	15.66003318	20.20184258	11.31116703
H	17.23956892	22.11668990	12.27210855
H	13.19088234	21.49965457	21.40319170
H	11.54563050	19.54777959	20.56063745
H	18.37816060	26.50851904	12.45585584
H	14.38127030	25.93823106	22.42509741
H	9.81025422	15.27486608	19.57876293
H	21.17458613	23.37689729	13.37291732
H	17.16689673	22.87585365	23.45518536
H	7.35623419	18.80479452	19.39347329
H	14.47640269	21.13990038	15.31102071
H	13.90776744	20.84063932	17.29028906
C	20.95012778	25.69275787	12.08525952
H	20.62107617	25.70925998	11.03252034
H	21.94091872	25.19821294	12.26657739
H	20.97929863	26.71212497	12.38690349
C	19.49819982	21.93559619	15.03955248
H	18.90959129	21.10321704	14.72222764
H	19.34374166	22.14871223	16.10497317
H	20.54887098	21.58206020	14.86371202
C	16.19170460	25.40898920	13.36275079
H	16.10354717	26.10762011	12.56102545
H	15.80642378	25.94987760	14.27174920
H	15.46372418	24.66698782	13.05228942
C	12.02611776	16.41139896	18.20220371
H	12.11964459	15.38162646	18.57714966
H	12.90406774	17.00129137	18.49288410
H	12.01283977	16.20598962	17.13051401
C	9.19657050	20.46934497	18.18843530
H	8.89181132	20.61818774	17.17002510
H	10.12613361	20.98854416	18.38379376
H	8.36145245	20.92464171	18.75604025
C	7.23213610	16.07362211	19.71708991
H	6.26459762	16.53123740	19.40491185
H	7.17457091	16.04819777	20.83275302
H	7.28117676	15.03960392	19.41915259
C	13.35764399	24.87464864	20.20189710
H	12.65256348	24.05703982	20.05545606
H	13.65732470	25.35203099	19.22989697
H	12.92628292	25.69398617	20.79434517
C	16.90090109	21.41252139	21.22412408
H	17.91487349	21.43782694	21.68768514
H	16.95123653	21.14899025	20.16981225
H	16.34011454	20.53397594	21.64045870
C	16.19290083	25.36451344	24.27181370
H	15.56987497	25.20391309	25.14875421
H	16.05779185	26.36583504	23.86543462
H	17.23768774	25.13309026	24.54470805
C	19.88044773	25.00395754	12.84912195
C	19.17103897	23.10869694	14.17694169
C	17.52233670	24.83004406	13.48890480
C	14.48610633	24.36114909	21.00841774
C	16.14089074	22.64523079	21.54360695
C	15.79485064	24.50024658	23.06208035
C	10.73956932	16.98504834	18.58782790
C	9.27781009	18.97454537	18.50310361
C	8.41153432	16.89408640	19.34995520
H	13.95422623	16.50704065	13.21748015
H	13.83793955	19.90933880	10.44917531
C	13.74704301	18.39488747	11.98907843
C	13.86951680	16.98163838	12.23356604
C	14.01761890	18.85519409	10.66076216

Ti O H C N 0
6-31G*
****

