%chk=f00019440.chk
%mem=24GB
%nproc=12
#p b3lyp/6-31G*

title

0 1
Ti	2.81187400	0.19704000	1.10336000
Ti	0.90594400	5.44057000	1.10336000
Ti	4.71781400	5.44057000	1.10336000
Ti	0.90594400	2.47241000	1.99114000
Ti	4.71781400	2.47241000	1.99114000
Ti	2.81187400	7.71594000	1.99115000
O	2.81187400	8.81302000	0.37332000
O	0.90594400	3.56949000	0.37332000
O	4.71781400	3.56949000	0.37332000
O	0.90594400	0.60134000	1.26110000
O	4.71781400	0.60134000	1.26110000
O	2.81187400	5.84486000	1.26111000
O	2.81187400	2.06812000	1.83340000
O	0.90594400	7.31164000	1.83340000
O	4.71781400	7.31164000	1.83340000
O	0.90594400	4.34349000	2.72118000
O	4.71781400	4.34349000	2.72118000
O	2.81187400	9.58701000	2.72118000
Ti	6.62374588	0.19704000	1.10336000
Ti	21.87123776	0.19704000	1.10336000
Ti	8.52968588	5.44057000	1.10336000
Ti	23.77717776	5.44057000	1.10336000
Ti	8.52968588	2.47241000	1.99114000
Ti	23.77717776	2.47241000	1.99114000
Ti	6.62374588	7.71594000	1.99115000
Ti	21.87123776	7.71594000	1.99115000
Ti	10.43561588	0.19704000	1.10336000
Ti	25.68310776	0.19704000	1.10336000
Ti	14.24749588	0.19704000	1.10336000
Ti	29.49498776	0.19704000	1.10336000
Ti	18.05936588	0.19704000	1.10336000
Ti	12.34155588	5.44057000	1.10336000
Ti	27.58904776	5.44057000	1.10336000
Ti	16.15343588	5.44057000	1.10336000
Ti	19.96530588	5.44057000	1.10336000
Ti	12.34155588	2.47241000	1.99114000
Ti	27.58904776	2.47241000	1.99114000
Ti	16.15343588	2.47241000	1.99114000
Ti	19.96530588	2.47241000	1.99114000
Ti	10.43561588	7.71594000	1.99115000
Ti	25.68310776	7.71594000	1.99115000
Ti	14.24749588	7.71594000	1.99115000
Ti	29.49498776	7.71594000	1.99115000
Ti	18.05936588	7.71594000	1.99115000
O	6.62374588	8.81302000	0.37332000
O	21.87123776	8.81302000	0.37332000
O	8.52968588	3.56949000	0.37332000
O	23.77717776	3.56949000	0.37332000
O	8.52968588	0.60134000	1.26110000
O	23.77717776	0.60134000	1.26110000
O	6.62374588	5.84486000	1.26111000
O	21.87123776	5.84486000	1.26111000
O	6.62374588	2.06812000	1.83340000
O	21.87123776	2.06812000	1.83340000
O	8.52968588	7.31164000	1.83340000
O	23.77717776	7.31164000	1.83340000
O	8.52968588	4.34349000	2.72118000
O	23.77717776	4.34349000	2.72118000
O	6.62374588	9.58701000	2.72118000
O	21.87123776	9.58701000	2.72118000
O	10.43561588	8.81302000	0.37332000
O	25.68310776	8.81302000	0.37332000
O	14.24749588	8.81302000	0.37332000
O	29.49498776	8.81302000	0.37332000
O	18.05936588	8.81302000	0.37332000
O	12.34155588	3.56949000	0.37332000
O	27.58904776	3.56949000	0.37332000
O	16.15343588	3.56949000	0.37332000
O	19.96530588	3.56949000	0.37332000
O	12.34155588	0.60134000	1.26110000
O	27.58904776	0.60134000	1.26110000
O	16.15343588	0.60134000	1.26110000
O	19.96530588	0.60134000	1.26110000
O	10.43561588	5.84486000	1.26111000
O	25.68310776	5.84486000	1.26111000
O	14.24749588	5.84486000	1.26111000
O	29.49498776	5.84486000	1.26111000
O	18.05936588	5.84486000	1.26111000
O	10.43561588	2.06812000	1.83340000
O	25.68310776	2.06812000	1.83340000
O	14.24749588	2.06812000	1.83340000
O	29.49498776	2.06812000	1.83340000
O	18.05936588	2.06812000	1.83340000
O	12.34155588	7.31164000	1.83340000
O	27.58904776	7.31164000	1.83340000
O	16.15343588	7.31164000	1.83340000
O	19.96530588	7.31164000	1.83340000
O	12.34155588	4.34349000	2.72118000
O	27.58904776	4.34349000	2.72118000
O	16.15343588	4.34349000	2.72118000
O	19.96530588	4.34349000	2.72118000
O	10.43561588	9.58701000	2.72118000
O	25.68310776	9.58701000	2.72118000
O	14.24749588	9.58701000	2.72118000
O	29.49498776	9.58701000	2.72118000
O	18.05936588	9.58701000	2.72118000
Ti	2.81187400	10.68408607	1.10336000
Ti	2.81187400	21.17113214	1.10336000
Ti	0.90594400	15.92761607	1.10336000
Ti	0.90594400	26.41466214	1.10336000
Ti	4.71781400	15.92761607	1.10336000
Ti	4.71781400	26.41466214	1.10336000
Ti	0.90594400	12.95945607	1.99114000
Ti	0.90594400	23.44650214	1.99114000
Ti	4.71781400	12.95945607	1.99114000
Ti	4.71781400	23.44650214	1.99114000
Ti	2.81187400	18.20298607	1.99115000
Ti	2.81187400	28.69003214	1.99115000
O	2.81187400	19.30006607	0.37332000
O	2.81187400	29.78711214	0.37332000
O	0.90594400	14.05653607	0.37332000
O	0.90594400	24.54358214	0.37332000
O	4.71781400	14.05653607	0.37332000
O	4.71781400	24.54358214	0.37332000
O	0.90594400	11.08838607	1.26110000
O	0.90594400	21.57543214	1.26110000
O	4.71781400	11.08838607	1.26110000
O	4.71781400	21.57543214	1.26110000
O	2.81187400	16.33190607	1.26111000
O	2.81187400	26.81895214	1.26111000
O	2.81187400	12.55516607	1.83340000
O	2.81187400	23.04221214	1.83340000
O	0.90594400	17.79868607	1.83340000
O	0.90594400	28.28573214	1.83340000
O	4.71781400	17.79868607	1.83340000
O	4.71781400	28.28573214	1.83340000
O	0.90594400	14.83053607	2.72118000
O	0.90594400	25.31758214	2.72118000
O	4.71781400	14.83053607	2.72118000
O	4.71781400	25.31758214	2.72118000
O	2.81187400	20.07405607	2.72118000
O	2.81187400	30.56110214	2.72118000
Ti	6.62374588	10.68408607	1.10336000
Ti	6.62374588	21.17113214	1.10336000
Ti	21.87123776	10.68408607	1.10336000
Ti	21.87123776	21.17113214	1.10336000
Ti	8.52968588	15.92761607	1.10336000
Ti	8.52968588	26.41466214	1.10336000
Ti	23.77717776	15.92761607	1.10336000
Ti	23.77717776	26.41466214	1.10336000
Ti	8.52968588	12.95945607	1.99114000
Ti	8.52968588	23.44650214	1.99114000
Ti	23.77717776	12.95945607	1.99114000
Ti	23.77717776	23.44650214	1.99114000
Ti	6.62374588	18.20298607	1.99115000
Ti	6.62374588	28.69003214	1.99115000
Ti	21.87123776	18.20298607	1.99115000
Ti	21.87123776	28.69003214	1.99115000
Ti	10.43561588	10.68408607	1.10336000
Ti	10.43561588	21.17113214	1.10336000
Ti	25.68310776	10.68408607	1.10336000
Ti	25.68310776	21.17113214	1.10336000
Ti	14.24749588	10.68408607	1.10336000
Ti	14.24749588	21.17113214	1.10336000
Ti	29.49498776	10.68408607	1.10336000
Ti	29.49498776	21.17113214	1.10336000
Ti	18.05936588	10.68408607	1.10336000
Ti	18.05936588	21.17113214	1.10336000
Ti	12.34155588	15.92761607	1.10336000
Ti	12.34155588	26.41466214	1.10336000
Ti	27.58904776	15.92761607	1.10336000
Ti	27.58904776	26.41466214	1.10336000
Ti	16.15343588	15.92761607	1.10336000
Ti	16.15343588	26.41466214	1.10336000
Ti	19.96530588	15.92761607	1.10336000
Ti	19.96530588	26.41466214	1.10336000
Ti	12.34155588	12.95945607	1.99114000
Ti	12.34155588	23.44650214	1.99114000
Ti	27.58904776	12.95945607	1.99114000
Ti	27.58904776	23.44650214	1.99114000
Ti	16.15343588	12.95945607	1.99114000
Ti	16.15343588	23.44650214	1.99114000
Ti	19.96530588	12.95945607	1.99114000
Ti	19.96530588	23.44650214	1.99114000
Ti	10.43561588	18.20298607	1.99115000
Ti	10.43561588	28.69003214	1.99115000
Ti	25.68310776	18.20298607	1.99115000
Ti	25.68310776	28.69003214	1.99115000
Ti	14.24749588	18.20298607	1.99115000
Ti	14.24749588	28.69003214	1.99115000
Ti	29.49498776	18.20298607	1.99115000
Ti	29.49498776	28.69003214	1.99115000
Ti	18.05936588	18.20298607	1.99115000
Ti	18.05936588	28.69003214	1.99115000
O	6.62374588	19.30006607	0.37332000
O	6.62374588	29.78711214	0.37332000
O	21.87123776	19.30006607	0.37332000
O	21.87123776	29.78711214	0.37332000
O	8.52968588	14.05653607	0.37332000
O	8.52968588	24.54358214	0.37332000
O	23.77717776	14.05653607	0.37332000
O	23.77717776	24.54358214	0.37332000
O	8.52968588	11.08838607	1.26110000
O	8.52968588	21.57543214	1.26110000
O	23.77717776	11.08838607	1.26110000
O	23.77717776	21.57543214	1.26110000
O	6.62374588	16.33190607	1.26111000
O	6.62374588	26.81895214	1.26111000
O	21.87123776	16.33190607	1.26111000
O	21.87123776	26.81895214	1.26111000
O	6.62374588	12.55516607	1.83340000
O	6.62374588	23.04221214	1.83340000
O	21.87123776	12.55516607	1.83340000
O	21.87123776	23.04221214	1.83340000
O	8.52968588	17.79868607	1.83340000
O	8.52968588	28.28573214	1.83340000
O	23.77717776	17.79868607	1.83340000
O	23.77717776	28.28573214	1.83340000
O	8.52968588	14.83053607	2.72118000
O	8.52968588	25.31758214	2.72118000
O	23.77717776	14.83053607	2.72118000
O	23.77717776	25.31758214	2.72118000
O	6.62374588	20.07405607	2.72118000
O	6.62374588	30.56110214	2.72118000
O	21.87123776	20.07405607	2.72118000
O	21.87123776	30.56110214	2.72118000
O	10.43561588	19.30006607	0.37332000
O	10.43561588	29.78711214	0.37332000
O	25.68310776	19.30006607	0.37332000
O	25.68310776	29.78711214	0.37332000
O	14.24749588	19.30006607	0.37332000
O	14.24749588	29.78711214	0.37332000
O	29.49498776	19.30006607	0.37332000
O	29.49498776	29.78711214	0.37332000
O	18.05936588	19.30006607	0.37332000
O	18.05936588	29.78711214	0.37332000
O	12.34155588	14.05653607	0.37332000
O	12.34155588	24.54358214	0.37332000
O	27.58904776	14.05653607	0.37332000
O	27.58904776	24.54358214	0.37332000
O	16.15343588	14.05653607	0.37332000
O	16.15343588	24.54358214	0.37332000
O	19.96530588	14.05653607	0.37332000
O	19.96530588	24.54358214	0.37332000
O	12.34155588	11.08838607	1.26110000
O	12.34155588	21.57543214	1.26110000
O	27.58904776	11.08838607	1.26110000
O	27.58904776	21.57543214	1.26110000
O	16.15343588	11.08838607	1.26110000
O	16.15343588	21.57543214	1.26110000
O	19.96530588	11.08838607	1.26110000
O	19.96530588	21.57543214	1.26110000
O	10.43561588	16.33190607	1.26111000
O	10.43561588	26.81895214	1.26111000
O	25.68310776	16.33190607	1.26111000
O	25.68310776	26.81895214	1.26111000
O	14.24749588	16.33190607	1.26111000
O	14.24749588	26.81895214	1.26111000
O	29.49498776	16.33190607	1.26111000
O	29.49498776	26.81895214	1.26111000
O	18.05936588	16.33190607	1.26111000
O	18.05936588	26.81895214	1.26111000
O	10.43561588	12.55516607	1.83340000
O	10.43561588	23.04221214	1.83340000
O	25.68310776	12.55516607	1.83340000
O	25.68310776	23.04221214	1.83340000
O	14.24749588	12.55516607	1.83340000
O	14.24749588	23.04221214	1.83340000
O	29.49498776	12.55516607	1.83340000
O	29.49498776	23.04221214	1.83340000
O	18.05936588	12.55516607	1.83340000
O	18.05936588	23.04221214	1.83340000
O	12.34155588	17.79868607	1.83340000
O	12.34155588	28.28573214	1.83340000
O	27.58904776	17.79868607	1.83340000
O	27.58904776	28.28573214	1.83340000
O	16.15343588	17.79868607	1.83340000
O	16.15343588	28.28573214	1.83340000
O	19.96530588	17.79868607	1.83340000
O	19.96530588	28.28573214	1.83340000
O	12.34155588	14.83053607	2.72118000
O	12.34155588	25.31758214	2.72118000
O	27.58904776	14.83053607	2.72118000
O	27.58904776	25.31758214	2.72118000
O	16.15343588	14.83053607	2.72118000
O	16.15343588	25.31758214	2.72118000
O	19.96530588	14.83053607	2.72118000
O	19.96530588	25.31758214	2.72118000
O	10.43561588	20.07405607	2.72118000
O	10.43561588	30.56110214	2.72118000
O	25.68310776	20.07405607	2.72118000
O	25.68310776	30.56110214	2.72118000
O	14.24749588	20.07405607	2.72118000
O	14.24749588	30.56110214	2.72118000
O	29.49498776	20.07405607	2.72118000
O	29.49498776	30.56110214	2.72118000
O	18.05936588	20.07405607	2.72118000
O	18.05936588	30.56110214	2.72118000
Ti	6.74220835	9.26724299	4.70839780
Ti	6.65238136	6.39072220	5.49867654
Ti	2.84406310	9.19770295	4.82961542
Ti	0.88261751	3.91929895	4.66253961
Ti	4.68937131	3.95314624	4.70763275
Ti	0.93898349	1.05724965	5.49714084
Ti	4.83005485	1.03962356	5.60320970
Ti	2.75216424	6.27949484	5.43041102
O	6.60400276	7.46982711	3.93642020
O	6.63131449	4.51868317	4.73154072
O	6.70029544	0.59882545	5.73564345
O	6.58876670	8.07669500	6.40547005
O	2.84798135	7.33163438	3.97935467
O	0.96912405	2.09555463	3.85874492
O	4.54103365	1.92616685	3.88445392
O	0.94554012	9.53283296	4.75637810
O	4.75096785	9.58058585	4.81246916
O	2.80199665	4.41627221	4.84581091
O	2.87319396	0.52057226	5.91804725
O	0.86925659	5.88461934	5.70073578
O	4.79470709	5.82543121	5.66225243
O	0.88344943	2.72784222	6.42710647
O	4.89466936	2.85734027	6.32278558
O	2.85987342	7.94396761	6.40096430
Ti	21.87930714	9.15293291	4.76275847
Ti	8.54837478	4.10001580	4.86871751
Ti	23.79018020	3.90407290	4.84914204
Ti	8.52771506	1.18345844	5.48577821
Ti	23.70064432	1.01478334	5.47477520
Ti	21.93017399	6.25631666	5.53137895
Ti	10.40027104	9.26816863	4.81922274
Ti	25.66687478	9.19948367	4.70813121
Ti	14.37108095	9.26698016	4.72399027
Ti	29.44195094	9.24954170	4.71847340
Ti	18.13026873	9.24797310	4.77955229
Ti	12.27880114	3.99675475	4.80211722
Ti	27.60156806	4.04578270	4.82529484
Ti	16.19226986	4.07580727	4.76011435
Ti	20.01234244	3.98997800	4.68706717
Ti	12.41587183	1.08315846	5.57393486
Ti	27.45429055	1.16281391	5.55578312
Ti	16.13702961	1.22843546	5.65571567
Ti	19.93892441	1.10211983	5.47401828
Ti	10.42156857	6.39256456	5.60620331
Ti	25.59511229	6.26716562	5.52910254
Ti	14.32316220	6.32874419	5.38998661
Ti	29.50944894	6.35020306	5.54605331
Ti	18.09935721	6.33220066	5.52953844
O	21.89089325	7.25843027	3.96102002
O	8.53066968	2.20419063	3.92962050
O	23.55387147	1.96756901	3.88261331
O	8.56544611	9.79945132	4.72291734
O	23.78614393	9.71756165	4.73147496
O	21.86704325	4.37376199	4.84248978
O	21.82077276	0.47315630	5.95368890
O	8.45615386	5.78642500	5.88462724
O	23.79604165	5.66240204	5.88283016
O	8.50511730	2.89503768	6.39396857
O	23.81798875	2.68288721	6.31968558
O	21.84324539	8.03615775	6.36640373
O	10.35729486	7.38493238	3.97323292
O	25.58137907	7.33657619	3.93229214
O	14.30459264	7.37222183	3.86681983
O	29.63092119	7.38421852	3.90073036
O	18.08816324	7.40280422	3.98838312
O	12.33050469	2.10024308	4.00027567
O	27.53755817	2.23974815	3.98758325
O	15.90496738	2.12520182	4.01336944
O	19.93933697	2.01391421	3.92801473
O	12.43977739	9.66066124	4.91065407
O	27.51225020	9.63023611	4.99024907
O	16.19614274	9.76092193	4.73913034
O	19.99853051	9.66220180	4.78544837
O	10.43052934	4.49223072	4.80641046
O	25.67199630	4.35580121	4.60979800
O	14.24304085	4.43217185	4.77690724
O	29.57735092	4.35493582	4.87677543
O	18.08844026	4.53564872	4.65872884
O	10.47073106	0.66371225	5.85525552
O	25.56898757	0.51638137	5.90245658
O	14.31474500	0.93299147	6.10052794
O	29.40108075	0.80543644	5.76534943
O	18.00190335	0.61902615	5.76330610
O	12.44537936	5.87115990	5.74978677
O	27.57582842	5.81587276	5.62406555
O	16.17411046	5.98467026	5.65328162
O	20.00543963	5.75127469	5.72201334
O	12.17153798	2.78694972	6.50033469
O	27.52810855	3.04508298	6.44061374
O	16.30490514	2.98640452	6.41239718
O	19.98908466	2.79444781	6.39467544
O	10.43953963	8.13963726	6.44191435
O	25.58897992	8.03470669	6.28459947
O	14.30249923	8.05303889	6.31660044
O	29.43991886	8.11807144	6.33923761
O	18.04028763	8.10020013	6.44890697
Ti	6.61901439	19.81955055	4.68586937
Ti	6.80374183	30.21798745	4.70615739
Ti	6.59164191	16.82083867	5.52249990
Ti	6.67844960	27.28965800	5.50184965
Ti	2.71920535	19.81637720	4.68440842
Ti	2.84426967	30.27849873	4.66354195
Ti	0.94948472	14.28656159	4.64576732
Ti	0.85172066	24.95397820	4.73357374
Ti	4.59910936	14.58840099	4.83277044
Ti	4.74262581	25.02475159	4.75928140
Ti	0.95036522	11.43813113	5.47506735
Ti	0.84003882	22.07552483	5.59510725
Ti	4.73079489	11.59887013	5.50104382
Ti	4.62500183	22.11799946	5.52120132
Ti	2.73805916	16.86907933	5.53130610
Ti	2.74395331	27.41233344	5.51377276
O	6.48820502	17.88547375	3.96247946
O	6.67070995	28.29593365	3.89117962
O	6.59243622	14.82101690	5.01175121
O	6.69946421	25.40747161	4.78446492
O	6.59879409	11.12619161	5.56578398
O	6.56473857	21.65433098	5.74409260
O	6.69200001	18.61851288	6.31587115
O	6.73221213	29.01335963	6.34269546
O	2.84841330	17.87031494	3.90257067
O	2.86405798	28.41400571	3.87613969
O	1.01183035	12.44946900	3.84052050
O	0.87281003	23.04058060	3.95623443
O	4.68232769	12.79204219	3.96175370
O	4.45890084	23.16378401	3.93162143
O	0.80998105	20.18585933	4.72837583
O	0.86397184	30.64666587	4.77348490
O	4.69578471	20.18725804	4.73867614
O	4.81926085	30.58955883	4.89250426
O	2.69655103	14.96407882	4.81487102
O	2.83546638	25.32404274	4.79999553
O	2.89317531	10.94968698	5.82479809
O	2.74863114	21.53522589	5.75924414
O	0.90814346	16.74760677	6.15669013
O	0.91601509	26.74655309	5.68518380
O	4.74788153	16.33184042	5.76914215
O	4.63961651	26.92677007	5.67254016
O	0.97044965	13.20294248	6.24185778
O	0.74737508	23.85250400	6.34509428
O	4.58151485	13.35591753	6.41960152
O	4.79580642	23.84580507	6.28076723
O	2.86796112	18.63144689	6.39412081
O	2.76747935	29.12907864	6.34857919
Ti	21.80780556	19.70460411	4.82505660
Ti	21.80241224	30.24074233	4.81099472
Ti	8.49091757	14.49156227	4.80753616
Ti	8.58502965	24.92231944	4.82590901
Ti	23.77986164	14.45809883	4.81177096
Ti	23.76888622	24.99325884	4.88817138
Ti	8.49864304	11.59679075	5.50580491
Ti	8.53554946	21.95697564	5.48194686
Ti	23.76714985	11.54986015	5.49087208
Ti	23.78146344	22.05192428	5.49324668
Ti	21.79731047	16.77726784	5.48552280
Ti	21.67518904	27.27019448	5.48115127
Ti	10.44467708	19.66417685	4.71379570
Ti	10.50423431	30.25687329	4.91074724
Ti	25.67932430	19.79053572	4.75423972
Ti	25.73089552	30.15220114	4.82985061
Ti	14.29403734	19.66856888	4.76190775
Ti	14.37005805	30.00487027	4.63828461
Ti	29.36577676	19.83150498	4.73107633
Ti	29.48979859	30.27578591	4.83754845
Ti	18.07555255	19.72302570	4.71852831
Ti	18.02895295	30.24669684	4.67581362
Ti	12.51158564	14.50717426	4.68061600
Ti	12.38719352	24.94975379	4.73447133
Ti	27.82178549	14.53613138	4.69086838
Ti	27.64397620	25.01301710	4.83172764
Ti	16.22042385	14.51797593	4.70228827
Ti	16.20605233	24.93875564	4.78955411
Ti	20.04264349	14.39528762	4.90569134
Ti	19.98846589	24.89666102	4.66468553
Ti	12.32887358	11.62481131	5.43521766
Ti	12.30573685	22.05518487	5.48978253
Ti	27.53159125	11.56242123	5.56023269
Ti	27.49754493	22.11129846	5.58687988
Ti	16.25109360	11.63839274	5.37136572
Ti	16.14828710	21.98174507	5.54049900
Ti	20.00521101	11.45338996	5.52406134
Ti	19.85572967	22.08792567	5.57464841
Ti	10.39530300	16.77964781	5.50850902
Ti	10.62447502	27.24719545	5.46411883
Ti	25.72836477	16.85249404	5.46332100
Ti	25.57726235	27.21639797	5.62372061
Ti	14.29083770	16.83777038	5.72633855
Ti	14.29589321	27.14951612	5.60568318
Ti	29.67990175	16.95779471	5.56615246
Ti	29.52082230	27.31696692	5.51589421
Ti	18.16403912	16.74863014	5.47304586
Ti	18.04522936	27.35137865	5.58378336
O	21.78572853	17.89543991	3.93529103
O	21.82182387	28.33440237	3.94209929
O	8.61296417	12.67876144	3.96192536
O	8.47252331	23.07811934	3.95526901
O	23.87498054	12.63235921	3.86745943
O	23.97680532	23.09218506	4.01637422
O	8.56086292	20.15674001	4.89574190
O	8.64118324	30.71861854	4.81795383
O	23.71891688	20.09998796	4.90452535
O	23.77934696	30.51829816	5.00175899
O	21.91149849	14.82701150	4.77570959
O	21.91111711	25.39482080	4.73277655
O	21.89103204	11.06813213	5.72137271
O	21.78916959	21.63632137	5.70731963
O	8.53231268	16.48547834	5.64260491
O	8.66637431	26.80276038	5.74260577
O	23.74691695	16.42686583	5.56084327
O	23.62553335	26.81117219	5.96953238
O	8.40345552	13.32768898	6.43683576
O	8.69748733	23.77163440	6.41542996
O	24.02221958	13.27384098	6.31490709
O	23.66420407	23.81723652	6.41538018
O	21.81151348	18.51945045	6.38267360
O	21.74721331	28.98615853	6.43227734
O	10.43749961	17.90508287	3.97488159
O	10.66386544	28.45322245	3.96126162
O	25.76439286	17.86808527	3.96062920
O	25.90843533	28.22162112	4.03601882
O	14.15858526	17.85771814	3.89913954
O	14.25207310	28.18189132	3.94878268
O	29.79060082	17.88260962	3.94181384
O	29.52814415	28.30941899	3.97385011
O	18.16485479	17.84586279	3.93405148
O	18.03375109	28.27904347	3.86296981
O	12.45881143	12.66997857	3.87477033
O	12.45894332	23.04606145	3.93344964
O	27.73193884	12.59267478	3.98835977
O	27.47239459	23.14694566	4.02270077
O	16.25959925	12.77424915	3.90173603
O	16.29558495	22.98555875	3.95120108
O	19.85932087	12.53664725	3.92032113
O	19.70907279	23.07097285	3.97346981
O	12.34643330	20.16854877	4.74599478
O	12.50494971	30.72280869	4.96281619
O	27.46945938	20.33758799	4.79823707
O	27.58104798	30.72148233	4.87742836
O	16.17521196	20.14373908	4.64683321
O	16.12156979	30.79650451	4.86688672
O	19.93728756	20.20660942	4.72864829
O	19.99552584	30.70049067	4.73572601
O	10.39647426	14.84849430	4.85085094
O	10.53511568	25.37050347	4.91062568
O	25.77317085	14.88759165	4.80263681
O	25.71909937	25.33917155	5.01576825
O	14.34248678	14.94241465	4.93340164
O	14.28494570	25.40358408	4.73256001
O	29.66779567	15.02062267	4.71941844
O	29.50168364	25.47936437	4.71113077
O	18.17935025	15.00356886	4.73465109
O	18.08436187	25.36954363	4.90618134
O	10.48132635	11.15230417	5.86758413
O	10.41507322	21.56817957	5.58594422
O	25.63329877	10.97368800	5.83385327
O	25.53505231	21.56397734	5.82226914
O	14.27278234	11.13286414	5.73006335
O	14.29965214	21.45240030	5.72878206
O	29.52591060	11.11128285	5.50367884
O	29.42892275	21.65620974	5.75472996
O	18.03087207	11.08028739	5.77504808
O	18.02102169	21.37576702	5.94955197
O	12.35481566	16.36382316	5.69440304
O	12.41737951	26.76367590	5.88263186
O	27.65319703	16.33631329	5.69255647
O	27.59696285	26.89883498	5.81245138
O	16.29184989	16.33712750	5.68108440
O	16.26698586	26.74887152	5.87923484
O	19.95309635	16.13089004	5.81240530
O	19.90341274	26.65992646	5.88676547
O	12.36556841	13.36988717	6.24617838
O	12.07614217	23.85896087	6.33685739
O	27.59335299	13.38388478	6.34948784
O	27.67626995	23.87100323	6.44968352
O	16.27186231	13.35380854	6.33697516
O	16.01982304	23.73137243	6.37595875
O	19.98047079	13.20502168	6.38028073
O	20.06467498	23.78416373	6.35558042
O	10.47639433	18.61368521	6.39470658
O	10.42314027	29.02841011	6.26721587
O	25.90733306	18.66123715	6.30266609
O	25.64650564	28.94852175	6.38909421
O	14.28810405	18.61672072	6.38716323
O	14.39234534	29.01977421	6.36768799
O	29.29239154	18.66494838	6.30373102
O	29.55346732	29.10659640	6.38673401
O	18.07034256	18.53048414	6.48430181
O	18.04567907	29.10301376	6.26685909
H	13.56175080	14.00032315	7.71315815
H	13.31095914	14.64312641	11.14398868
H	14.74266530	17.98631041	8.95317815
O	14.30771530	16.02646994	7.48026708
O	13.69794020	14.23718398	8.65351866
C	13.97055131	15.49943811	8.67557529
C	14.05789303	16.31027045	9.92817829
C	13.69213643	15.69460161	11.12059487
C	14.59375321	17.62340850	9.95885076
N	12.96329607	19.41985173	15.39024539
N	15.75809946	21.85124500	17.22215938
N	15.84995744	20.06502048	14.81154608
N	12.92949896	21.29441618	17.65817513
C	21.38595976	20.45472413	16.38578017
C	13.87522873	25.04105008	22.01959933
C	7.13140153	20.14912501	16.44927686
C	19.23026690	21.33356561	15.81275654
C	14.07247048	24.12082874	19.86099393
C	9.43455837	19.82455005	16.95915771
C	21.31489300	22.44857791	15.04152354
C	13.30507881	26.40103269	20.09074649
C	7.77179597	19.04595955	18.51751888
C	14.40680280	18.58343888	13.52160428
C	17.77018478	21.15648952	15.90464340
C	14.32771698	22.97917130	18.90238246
C	10.94048880	20.04946428	16.66904348
C	15.60171353	19.26530787	13.71437541
C	17.19246898	20.34753231	14.91041212
C	13.12728330	22.26768428	18.62503292
C	11.59505281	21.02458901	17.47189014
C	16.96688247	18.95876967	13.14315678
C	17.87013700	19.73890565	13.81641892
C	11.82290061	22.68842535	19.05591235
C	10.89613490	21.95252367	18.36372947
C	13.23821251	18.54730580	14.32706099
C	17.09651239	21.90738018	16.88603035
C	15.55949921	22.74063736	18.27624204
C	11.65715728	19.22880715	15.79686997
C	12.05744612	17.84435634	14.02921702
C	17.76641511	22.72146845	17.84667383
C	16.84032389	23.31243455	18.65634789
C	11.10768056	18.16256761	14.99291130
H	11.85333555	17.05479302	13.29682780
H	18.83632319	22.74801377	18.00869340
H	17.02811423	23.93275316	19.57331894
H	10.11911288	17.72418461	15.07444312
H	17.14820426	18.33126232	12.27659069
H	18.97953480	19.80064858	13.67567024
H	11.55964085	23.40096185	19.79565887
H	9.80389596	21.99863139	18.45958917
H	21.69100708	23.25690576	14.37554489
H	12.97729894	27.39728086	19.65128018
H	7.46303830	18.55895210	19.46316410
H	22.09819353	19.67155715	16.73724589
H	14.04106115	24.99122829	23.11260413
H	6.34631336	20.60752650	15.78127691
H	15.15956720	20.48843777	15.45703739
H	13.70268547	20.78901232	17.16798070
C	23.56523867	21.46236128	15.34446649
H	24.13562359	20.82598869	16.04038476
H	23.88897012	22.44843771	15.49217705
H	23.82651762	21.17416933	14.28019911
C	19.25303902	19.20483399	17.01436747
H	19.95242029	18.71001604	17.67581534
H	19.08758562	18.53871356	16.17100927
H	18.32995264	19.55991420	17.55757313
C	19.08833529	23.59518275	14.85563465
H	19.35430711	24.42524623	15.59120675
H	18.04597908	23.37366570	14.96421062
H	19.25551725	23.99825339	13.81060690
C	10.11333856	18.64384415	19.15011291
H	10.31259962	19.39063923	19.92328075
H	11.06661015	18.50002969	18.69918596
H	9.71362495	17.69562834	19.65950700
C	8.90964366	21.08622679	14.91950229
H	9.74969371	21.76701708	15.05104486
H	8.06096498	21.62615845	14.47200902
H	9.32131859	20.39559865	14.17652736
C	5.27310317	19.22661285	17.84232510
H	4.77161945	19.70539661	16.99741422
H	4.85621983	19.70825889	18.76395898
H	5.21182773	18.12184349	17.71601171
C	13.38343237	25.50341886	17.81450958
H	12.74077075	24.72863896	17.31630592
H	14.37798246	25.42399409	17.35754615
H	12.99133453	26.44510443	17.53043153
C	14.73688296	22.63915246	21.84674071
H	15.75295695	22.92904959	22.20466417
H	14.76976332	21.76635379	21.14486936
H	14.18129252	22.33086524	22.67975827
C	13.45929703	27.47742249	22.30542856
H	14.25160375	27.48327206	23.04638688
H	12.47231829	27.42093780	22.82267309
H	13.56752701	28.35506382	21.68585519
C	22.06760906	21.39156342	15.58025238
C	19.97945756	20.31062321	16.39468893
C	19.89545023	22.42371829	15.19233145
C	13.52409130	25.29982386	19.30959629
C	14.23339222	23.90814657	21.25106133
C	13.51974488	26.25631117	21.48301953
C	9.10608552	19.21962469	18.16545857
C	8.44020900	20.39944431	16.12480132
C	6.76181597	19.48181132	17.62026825
H	13.51227018	15.87304093	13.21058901
H	15.16649998	19.43468063	11.05651450
C	14.34479774	17.73895571	12.25770896
C	13.81205086	16.42298674	12.31781578
C	14.71682797	18.39653886	11.06828570

Ti O H C N 0
6-31G*
****

