%chk=f00018280.chk
%mem=24GB
%nproc=12
#p b3lyp/6-31G*

title

0 1
Ti	2.81187400	0.19704000	1.10336000
Ti	0.90594400	5.44057000	1.10336000
Ti	4.71781400	5.44057000	1.10336000
Ti	0.90594400	2.47241000	1.99114000
Ti	4.71781400	2.47241000	1.99114000
Ti	2.81187400	7.71594000	1.99115000
O	2.81187400	8.81302000	0.37332000
O	0.90594400	3.56949000	0.37332000
O	4.71781400	3.56949000	0.37332000
O	0.90594400	0.60134000	1.26110000
O	4.71781400	0.60134000	1.26110000
O	2.81187400	5.84486000	1.26111000
O	2.81187400	2.06812000	1.83340000
O	0.90594400	7.31164000	1.83340000
O	4.71781400	7.31164000	1.83340000
O	0.90594400	4.34349000	2.72118000
O	4.71781400	4.34349000	2.72118000
O	2.81187400	9.58701000	2.72118000
Ti	6.62374588	0.19704000	1.10336000
Ti	21.87123776	0.19704000	1.10336000
Ti	8.52968588	5.44057000	1.10336000
Ti	23.77717776	5.44057000	1.10336000
Ti	8.52968588	2.47241000	1.99114000
Ti	23.77717776	2.47241000	1.99114000
Ti	6.62374588	7.71594000	1.99115000
Ti	21.87123776	7.71594000	1.99115000
Ti	10.43561588	0.19704000	1.10336000
Ti	25.68310776	0.19704000	1.10336000
Ti	14.24749588	0.19704000	1.10336000
Ti	29.49498776	0.19704000	1.10336000
Ti	18.05936588	0.19704000	1.10336000
Ti	12.34155588	5.44057000	1.10336000
Ti	27.58904776	5.44057000	1.10336000
Ti	16.15343588	5.44057000	1.10336000
Ti	19.96530588	5.44057000	1.10336000
Ti	12.34155588	2.47241000	1.99114000
Ti	27.58904776	2.47241000	1.99114000
Ti	16.15343588	2.47241000	1.99114000
Ti	19.96530588	2.47241000	1.99114000
Ti	10.43561588	7.71594000	1.99115000
Ti	25.68310776	7.71594000	1.99115000
Ti	14.24749588	7.71594000	1.99115000
Ti	29.49498776	7.71594000	1.99115000
Ti	18.05936588	7.71594000	1.99115000
O	6.62374588	8.81302000	0.37332000
O	21.87123776	8.81302000	0.37332000
O	8.52968588	3.56949000	0.37332000
O	23.77717776	3.56949000	0.37332000
O	8.52968588	0.60134000	1.26110000
O	23.77717776	0.60134000	1.26110000
O	6.62374588	5.84486000	1.26111000
O	21.87123776	5.84486000	1.26111000
O	6.62374588	2.06812000	1.83340000
O	21.87123776	2.06812000	1.83340000
O	8.52968588	7.31164000	1.83340000
O	23.77717776	7.31164000	1.83340000
O	8.52968588	4.34349000	2.72118000
O	23.77717776	4.34349000	2.72118000
O	6.62374588	9.58701000	2.72118000
O	21.87123776	9.58701000	2.72118000
O	10.43561588	8.81302000	0.37332000
O	25.68310776	8.81302000	0.37332000
O	14.24749588	8.81302000	0.37332000
O	29.49498776	8.81302000	0.37332000
O	18.05936588	8.81302000	0.37332000
O	12.34155588	3.56949000	0.37332000
O	27.58904776	3.56949000	0.37332000
O	16.15343588	3.56949000	0.37332000
O	19.96530588	3.56949000	0.37332000
O	12.34155588	0.60134000	1.26110000
O	27.58904776	0.60134000	1.26110000
O	16.15343588	0.60134000	1.26110000
O	19.96530588	0.60134000	1.26110000
O	10.43561588	5.84486000	1.26111000
O	25.68310776	5.84486000	1.26111000
O	14.24749588	5.84486000	1.26111000
O	29.49498776	5.84486000	1.26111000
O	18.05936588	5.84486000	1.26111000
O	10.43561588	2.06812000	1.83340000
O	25.68310776	2.06812000	1.83340000
O	14.24749588	2.06812000	1.83340000
O	29.49498776	2.06812000	1.83340000
O	18.05936588	2.06812000	1.83340000
O	12.34155588	7.31164000	1.83340000
O	27.58904776	7.31164000	1.83340000
O	16.15343588	7.31164000	1.83340000
O	19.96530588	7.31164000	1.83340000
O	12.34155588	4.34349000	2.72118000
O	27.58904776	4.34349000	2.72118000
O	16.15343588	4.34349000	2.72118000
O	19.96530588	4.34349000	2.72118000
O	10.43561588	9.58701000	2.72118000
O	25.68310776	9.58701000	2.72118000
O	14.24749588	9.58701000	2.72118000
O	29.49498776	9.58701000	2.72118000
O	18.05936588	9.58701000	2.72118000
Ti	2.81187400	10.68408607	1.10336000
Ti	2.81187400	21.17113214	1.10336000
Ti	0.90594400	15.92761607	1.10336000
Ti	0.90594400	26.41466214	1.10336000
Ti	4.71781400	15.92761607	1.10336000
Ti	4.71781400	26.41466214	1.10336000
Ti	0.90594400	12.95945607	1.99114000
Ti	0.90594400	23.44650214	1.99114000
Ti	4.71781400	12.95945607	1.99114000
Ti	4.71781400	23.44650214	1.99114000
Ti	2.81187400	18.20298607	1.99115000
Ti	2.81187400	28.69003214	1.99115000
O	2.81187400	19.30006607	0.37332000
O	2.81187400	29.78711214	0.37332000
O	0.90594400	14.05653607	0.37332000
O	0.90594400	24.54358214	0.37332000
O	4.71781400	14.05653607	0.37332000
O	4.71781400	24.54358214	0.37332000
O	0.90594400	11.08838607	1.26110000
O	0.90594400	21.57543214	1.26110000
O	4.71781400	11.08838607	1.26110000
O	4.71781400	21.57543214	1.26110000
O	2.81187400	16.33190607	1.26111000
O	2.81187400	26.81895214	1.26111000
O	2.81187400	12.55516607	1.83340000
O	2.81187400	23.04221214	1.83340000
O	0.90594400	17.79868607	1.83340000
O	0.90594400	28.28573214	1.83340000
O	4.71781400	17.79868607	1.83340000
O	4.71781400	28.28573214	1.83340000
O	0.90594400	14.83053607	2.72118000
O	0.90594400	25.31758214	2.72118000
O	4.71781400	14.83053607	2.72118000
O	4.71781400	25.31758214	2.72118000
O	2.81187400	20.07405607	2.72118000
O	2.81187400	30.56110214	2.72118000
Ti	6.62374588	10.68408607	1.10336000
Ti	6.62374588	21.17113214	1.10336000
Ti	21.87123776	10.68408607	1.10336000
Ti	21.87123776	21.17113214	1.10336000
Ti	8.52968588	15.92761607	1.10336000
Ti	8.52968588	26.41466214	1.10336000
Ti	23.77717776	15.92761607	1.10336000
Ti	23.77717776	26.41466214	1.10336000
Ti	8.52968588	12.95945607	1.99114000
Ti	8.52968588	23.44650214	1.99114000
Ti	23.77717776	12.95945607	1.99114000
Ti	23.77717776	23.44650214	1.99114000
Ti	6.62374588	18.20298607	1.99115000
Ti	6.62374588	28.69003214	1.99115000
Ti	21.87123776	18.20298607	1.99115000
Ti	21.87123776	28.69003214	1.99115000
Ti	10.43561588	10.68408607	1.10336000
Ti	10.43561588	21.17113214	1.10336000
Ti	25.68310776	10.68408607	1.10336000
Ti	25.68310776	21.17113214	1.10336000
Ti	14.24749588	10.68408607	1.10336000
Ti	14.24749588	21.17113214	1.10336000
Ti	29.49498776	10.68408607	1.10336000
Ti	29.49498776	21.17113214	1.10336000
Ti	18.05936588	10.68408607	1.10336000
Ti	18.05936588	21.17113214	1.10336000
Ti	12.34155588	15.92761607	1.10336000
Ti	12.34155588	26.41466214	1.10336000
Ti	27.58904776	15.92761607	1.10336000
Ti	27.58904776	26.41466214	1.10336000
Ti	16.15343588	15.92761607	1.10336000
Ti	16.15343588	26.41466214	1.10336000
Ti	19.96530588	15.92761607	1.10336000
Ti	19.96530588	26.41466214	1.10336000
Ti	12.34155588	12.95945607	1.99114000
Ti	12.34155588	23.44650214	1.99114000
Ti	27.58904776	12.95945607	1.99114000
Ti	27.58904776	23.44650214	1.99114000
Ti	16.15343588	12.95945607	1.99114000
Ti	16.15343588	23.44650214	1.99114000
Ti	19.96530588	12.95945607	1.99114000
Ti	19.96530588	23.44650214	1.99114000
Ti	10.43561588	18.20298607	1.99115000
Ti	10.43561588	28.69003214	1.99115000
Ti	25.68310776	18.20298607	1.99115000
Ti	25.68310776	28.69003214	1.99115000
Ti	14.24749588	18.20298607	1.99115000
Ti	14.24749588	28.69003214	1.99115000
Ti	29.49498776	18.20298607	1.99115000
Ti	29.49498776	28.69003214	1.99115000
Ti	18.05936588	18.20298607	1.99115000
Ti	18.05936588	28.69003214	1.99115000
O	6.62374588	19.30006607	0.37332000
O	6.62374588	29.78711214	0.37332000
O	21.87123776	19.30006607	0.37332000
O	21.87123776	29.78711214	0.37332000
O	8.52968588	14.05653607	0.37332000
O	8.52968588	24.54358214	0.37332000
O	23.77717776	14.05653607	0.37332000
O	23.77717776	24.54358214	0.37332000
O	8.52968588	11.08838607	1.26110000
O	8.52968588	21.57543214	1.26110000
O	23.77717776	11.08838607	1.26110000
O	23.77717776	21.57543214	1.26110000
O	6.62374588	16.33190607	1.26111000
O	6.62374588	26.81895214	1.26111000
O	21.87123776	16.33190607	1.26111000
O	21.87123776	26.81895214	1.26111000
O	6.62374588	12.55516607	1.83340000
O	6.62374588	23.04221214	1.83340000
O	21.87123776	12.55516607	1.83340000
O	21.87123776	23.04221214	1.83340000
O	8.52968588	17.79868607	1.83340000
O	8.52968588	28.28573214	1.83340000
O	23.77717776	17.79868607	1.83340000
O	23.77717776	28.28573214	1.83340000
O	8.52968588	14.83053607	2.72118000
O	8.52968588	25.31758214	2.72118000
O	23.77717776	14.83053607	2.72118000
O	23.77717776	25.31758214	2.72118000
O	6.62374588	20.07405607	2.72118000
O	6.62374588	30.56110214	2.72118000
O	21.87123776	20.07405607	2.72118000
O	21.87123776	30.56110214	2.72118000
O	10.43561588	19.30006607	0.37332000
O	10.43561588	29.78711214	0.37332000
O	25.68310776	19.30006607	0.37332000
O	25.68310776	29.78711214	0.37332000
O	14.24749588	19.30006607	0.37332000
O	14.24749588	29.78711214	0.37332000
O	29.49498776	19.30006607	0.37332000
O	29.49498776	29.78711214	0.37332000
O	18.05936588	19.30006607	0.37332000
O	18.05936588	29.78711214	0.37332000
O	12.34155588	14.05653607	0.37332000
O	12.34155588	24.54358214	0.37332000
O	27.58904776	14.05653607	0.37332000
O	27.58904776	24.54358214	0.37332000
O	16.15343588	14.05653607	0.37332000
O	16.15343588	24.54358214	0.37332000
O	19.96530588	14.05653607	0.37332000
O	19.96530588	24.54358214	0.37332000
O	12.34155588	11.08838607	1.26110000
O	12.34155588	21.57543214	1.26110000
O	27.58904776	11.08838607	1.26110000
O	27.58904776	21.57543214	1.26110000
O	16.15343588	11.08838607	1.26110000
O	16.15343588	21.57543214	1.26110000
O	19.96530588	11.08838607	1.26110000
O	19.96530588	21.57543214	1.26110000
O	10.43561588	16.33190607	1.26111000
O	10.43561588	26.81895214	1.26111000
O	25.68310776	16.33190607	1.26111000
O	25.68310776	26.81895214	1.26111000
O	14.24749588	16.33190607	1.26111000
O	14.24749588	26.81895214	1.26111000
O	29.49498776	16.33190607	1.26111000
O	29.49498776	26.81895214	1.26111000
O	18.05936588	16.33190607	1.26111000
O	18.05936588	26.81895214	1.26111000
O	10.43561588	12.55516607	1.83340000
O	10.43561588	23.04221214	1.83340000
O	25.68310776	12.55516607	1.83340000
O	25.68310776	23.04221214	1.83340000
O	14.24749588	12.55516607	1.83340000
O	14.24749588	23.04221214	1.83340000
O	29.49498776	12.55516607	1.83340000
O	29.49498776	23.04221214	1.83340000
O	18.05936588	12.55516607	1.83340000
O	18.05936588	23.04221214	1.83340000
O	12.34155588	17.79868607	1.83340000
O	12.34155588	28.28573214	1.83340000
O	27.58904776	17.79868607	1.83340000
O	27.58904776	28.28573214	1.83340000
O	16.15343588	17.79868607	1.83340000
O	16.15343588	28.28573214	1.83340000
O	19.96530588	17.79868607	1.83340000
O	19.96530588	28.28573214	1.83340000
O	12.34155588	14.83053607	2.72118000
O	12.34155588	25.31758214	2.72118000
O	27.58904776	14.83053607	2.72118000
O	27.58904776	25.31758214	2.72118000
O	16.15343588	14.83053607	2.72118000
O	16.15343588	25.31758214	2.72118000
O	19.96530588	14.83053607	2.72118000
O	19.96530588	25.31758214	2.72118000
O	10.43561588	20.07405607	2.72118000
O	10.43561588	30.56110214	2.72118000
O	25.68310776	20.07405607	2.72118000
O	25.68310776	30.56110214	2.72118000
O	14.24749588	20.07405607	2.72118000
O	14.24749588	30.56110214	2.72118000
O	29.49498776	20.07405607	2.72118000
O	29.49498776	30.56110214	2.72118000
O	18.05936588	20.07405607	2.72118000
O	18.05936588	30.56110214	2.72118000
Ti	6.65106118	9.27185121	4.74854159
Ti	6.54189500	6.39182263	5.52795870
Ti	2.73850205	9.23495905	4.71528812
Ti	0.75842863	3.92348115	4.78602890
Ti	4.59922537	4.00325336	4.70071880
Ti	0.93169248	0.97966097	5.52081902
Ti	4.81331857	1.11809460	5.68002245
Ti	2.64880390	6.38354919	5.59960854
O	6.75994051	7.30551133	3.96226498
O	6.52334701	4.49974785	4.79688099
O	6.66143626	0.55176213	6.01589598
O	6.54224363	8.14899789	6.32597555
O	2.67196085	7.35021053	4.01382610
O	0.83942115	2.00497738	3.91493202
O	4.87088604	2.05677835	3.99225019
O	0.82219921	9.65351735	4.72202126
O	4.70150967	9.66096807	4.82952368
O	2.68468714	4.54033100	4.83759034
O	2.79576160	0.66525600	5.75031996
O	0.74656106	5.85872720	5.81810253
O	4.63132609	5.98116373	5.75713905
O	0.97872312	2.91314682	6.47171174
O	4.76471038	2.92418063	6.30145957
O	2.78890321	8.16202749	6.35739304
Ti	22.01861463	9.22056910	4.74370306
Ti	8.42167507	4.09441916	4.79264369
Ti	23.67978322	4.03061839	4.72965694
Ti	8.43109720	1.12823131	5.49712040
Ti	23.77310780	1.14052896	5.51109712
Ti	21.81742853	6.36966895	5.60638433
Ti	10.42404885	9.20987993	4.77265820
Ti	25.79327091	9.26850725	4.79466187
Ti	14.23739387	9.29227277	4.68361215
Ti	29.46173842	9.21990269	4.73151787
Ti	18.09509651	9.21606687	4.71953601
Ti	12.27535880	4.06417273	4.69963090
Ti	27.57788840	3.92233748	4.66433154
Ti	16.10283265	4.04502577	4.77017847
Ti	19.95625818	3.97280515	4.78859886
Ti	12.33360049	1.19124800	5.39908003
Ti	27.57952834	1.05707507	5.49997303
Ti	16.19349413	1.11526203	5.61983917
Ti	19.91391149	1.09609503	5.53867545
Ti	10.35002091	6.34257749	5.48899622
Ti	25.61365908	6.31089802	5.50486307
Ti	14.17217392	6.35147540	5.41612590
Ti	29.35969990	6.30361477	5.46394589
Ti	18.09482217	6.37316150	5.59263474
O	21.88469298	7.37920167	3.97426297
O	8.36755001	2.23689347	3.94545787
O	23.63782279	2.04721424	3.88082261
O	8.49063138	9.58490187	4.71343851
O	23.86857119	9.66455811	4.95934175
O	21.71009130	4.40784949	4.89482050
O	21.86437031	0.56278940	5.84796531
O	8.43691344	5.88489057	5.84205147
O	23.80523673	5.73844446	5.82931533
O	8.44810989	2.88159977	6.36627917
O	23.82491107	2.85754162	6.34678049
O	21.82407263	8.16954376	6.37928681
O	10.31736121	7.24025918	3.94764991
O	25.46341602	7.32833745	3.91994758
O	14.48581438	7.45187686	3.90431150
O	29.26377557	7.33260338	3.90501576
O	18.15889721	7.32785541	3.98168708
O	12.36619872	2.10963788	3.87768646
O	27.37416623	1.96684919	3.95301009
O	16.04256604	2.03898144	3.99670465
O	20.05295281	2.18360520	3.98112827
O	12.37924528	9.60308941	4.86094063
O	27.59928972	9.69564964	4.85933682
O	16.10663542	9.77169970	4.75145625
O	19.97698976	9.60387047	4.75929016
O	10.39460090	4.37661823	4.81668037
O	25.69019940	4.31226344	4.69264515
O	14.21798103	4.44510479	4.70086468
O	29.45398548	4.31466917	4.80419965
O	18.02329833	4.47705731	4.75818160
O	10.44096099	0.54065633	5.70059146
O	25.67782914	0.59841861	5.69632204
O	14.17644787	0.47887961	5.85468494
O	29.49384219	0.54407133	5.70169019
O	18.04344072	0.48993845	5.83075205
O	12.28938338	5.95151838	5.61909623
O	27.44150584	5.65273962	5.89931581
O	16.07078569	5.87468922	5.73750891
O	19.90881223	5.84501708	5.98730158
O	12.12832334	2.89593930	6.34136335
O	27.63668873	2.74879237	6.31981948
O	16.12752166	2.86541984	6.35627740
O	19.85130468	2.82452161	6.32451298
O	10.43649161	8.06757089	6.41047250
O	25.83239822	8.07553663	6.28811122
O	14.24781554	8.12989804	6.25648319
O	29.45667795	7.97352431	6.37483648
O	17.91431950	8.18474953	6.42278179
Ti	6.69164435	19.69754732	4.80309525
Ti	6.69256245	30.26426221	4.69928003
Ti	6.55541435	16.79684707	5.50291073
Ti	6.56370743	27.31964631	5.48429458
Ti	2.80924921	19.78625550	4.72686855
Ti	2.93144738	30.27628825	4.84784435
Ti	0.88722972	14.35933055	4.67263085
Ti	0.98733706	24.94577581	4.69355556
Ti	4.48650809	14.41204907	4.82814346
Ti	4.75971895	24.95764797	4.68458819
Ti	0.89436712	11.51015970	5.46045411
Ti	0.88872625	22.07133364	5.48519323
Ti	4.69752608	11.52505355	5.47037607
Ti	4.84388503	21.98541797	5.40910337
Ti	2.58562495	16.90966544	5.62287437
Ti	2.96481023	27.29965118	5.53386557
O	6.72149716	17.84764431	3.93527908
O	6.74289689	28.29320676	3.95405569
O	6.40464383	14.72606907	4.83182830
O	6.61198895	25.38084681	4.72486107
O	6.62633657	11.04698642	5.66185863
O	6.64426217	21.51894759	5.86193003
O	6.54754102	18.47274887	6.33779166
O	6.38921163	29.03125289	6.30478908
O	2.82886729	17.90151299	3.90328007
O	2.99081895	28.30049245	3.98480093
O	0.87739653	12.54897236	3.89973823
O	0.86966153	22.97665745	3.82988932
O	4.71921835	12.58919249	3.95310493
O	4.83814081	23.17624841	3.89479987
O	0.83957574	20.17152948	4.82058310
O	1.01028992	30.59944647	4.83334643
O	4.72075793	20.11888233	4.82793128
O	4.75011265	30.71671838	4.78053733
O	2.69044723	15.09481358	4.98375767
O	2.80258272	25.37281705	4.92345065
O	2.75898706	11.03985130	5.63060307
O	2.88108012	21.69566129	5.55645466
O	0.84529025	16.79777447	6.36762983
O	0.97852870	26.79124829	5.81821828
O	4.69071112	16.39003603	5.82586511
O	4.73781142	26.68924072	5.93516446
O	0.98519338	13.32723691	6.38296291
O	1.02952792	23.80849525	6.30924612
O	4.48530154	13.38044254	6.43186333
O	4.58135612	23.63289104	6.36350667
O	2.90486330	18.71167259	6.38409786
O	2.82097126	29.07133337	6.35783494
Ti	21.87729306	19.76119326	4.83419738
Ti	21.84385902	30.22136570	4.73375534
Ti	8.37573386	14.53740686	4.64552228
Ti	8.48286617	24.92894442	4.79061917
Ti	23.87980087	14.46319249	4.84014999
Ti	23.82385810	24.97476456	4.67725143
Ti	8.53946273	11.56018471	5.39384747
Ti	8.54055994	22.03900420	5.43246132
Ti	23.79638143	11.56987859	5.53793142
Ti	23.80670896	22.11530191	5.56680654
Ti	21.93884252	16.80473185	5.50063325
Ti	21.97682542	27.31109676	5.51282508
Ti	10.38199938	19.72838715	4.67598074
Ti	10.43455882	30.27032553	4.73400109
Ti	25.59917039	19.77899556	4.81231219
Ti	25.67608932	30.24901999	4.80064317
Ti	14.22585828	19.56214636	4.74236171
Ti	14.18506319	30.15499789	4.76472168
Ti	29.38133649	19.81162106	4.71637310
Ti	29.57587465	30.20320352	4.79047037
Ti	18.11966739	19.66783913	4.84158454
Ti	18.01280660	30.08084314	4.77981032
Ti	12.37347651	14.54132199	4.65330044
Ti	12.30814426	24.93079128	4.68246295
Ti	27.64036001	14.49285174	4.88284900
Ti	27.62700301	25.00872994	4.85463855
Ti	16.19207708	14.56482845	4.70944728
Ti	16.16123231	24.92168381	4.83242231
Ti	20.03573178	14.52510815	4.73891405
Ti	20.04180400	25.04438013	4.74851563
Ti	12.41471783	11.62038340	5.40780264
Ti	12.33026957	22.04214183	5.54676553
Ti	27.61645925	11.60813283	5.58618026
Ti	27.57598482	22.06194444	5.55635439
Ti	16.21744132	11.69338547	5.56989839
Ti	16.21699343	21.94849030	5.50511244
Ti	19.97157485	11.52158812	5.43039372
Ti	19.99826177	22.12151053	5.57299869
Ti	10.29583635	16.79548243	5.50014837
Ti	10.51167363	27.32007605	5.48882617
Ti	25.71642642	16.78765407	5.44722424
Ti	25.71557055	27.33024087	5.51167691
Ti	14.28606960	16.68167248	5.92842811
Ti	14.24134361	27.20409816	5.50727691
Ti	29.58203106	16.93293833	5.69539723
Ti	29.50440732	27.24760513	5.52070921
Ti	18.14190645	16.75139648	5.54313743
Ti	18.06242532	27.18548885	5.57655178
O	21.63083041	17.95618857	3.95685688
O	22.07401700	28.36614298	3.93374478
O	8.68456719	12.66932268	3.86673242
O	8.79858456	23.10224775	3.90062445
O	23.88822247	12.68191113	3.98234138
O	23.63302676	23.15343463	3.94131494
O	8.51779060	20.17727483	4.80000115
O	8.52476591	30.69899386	4.70168799
O	23.73509126	20.21099156	4.87185725
O	23.77513565	30.70472884	4.71684980
O	22.03212080	14.96494249	4.70270812
O	21.92242976	25.53120957	4.78442757
O	21.87926562	11.12003637	5.64896358
O	21.95373263	21.62824788	5.81407058
O	8.32052658	16.21007317	5.72709725
O	8.47036329	26.80842762	5.79636134
O	23.83681712	16.30761715	5.77632613
O	23.84248196	26.80995244	5.82633912
O	8.43461161	13.17344490	6.29963050
O	8.53200672	23.73396537	6.37490394
O	23.78075602	13.25655312	6.41201724
O	23.79600913	23.91741355	6.35924353
O	21.97526764	18.55309890	6.40877129
O	21.99977594	29.07740503	6.41618426
O	10.38435411	17.91756965	3.96242196
O	10.45277247	28.33439888	3.98869254
O	25.64495461	17.85199086	3.98130138
O	25.69689955	28.40481923	3.95379011
O	14.17753489	17.72513678	4.01421985
O	14.28566021	28.27471363	3.95546777
O	29.60739444	17.80415702	4.02057552
O	29.45696662	28.31890829	3.98317992
O	18.23407725	17.87952613	4.03164524
O	17.96822575	28.30068915	3.93473516
O	12.26748945	12.59306969	3.84594334
O	12.27077324	22.95236158	3.87700167
O	27.80241172	12.58975423	3.98052439
O	27.62409560	23.13974651	3.95277867
O	16.16721526	12.62738694	3.96773223
O	16.10471372	23.08401470	3.95801318
O	19.85516396	12.65415875	3.92936073
O	19.99913727	23.18689109	4.03587044
O	12.30071903	20.02718324	4.72901934
O	12.31915479	30.63707538	4.80515205
O	27.48032712	20.18799876	4.78397175
O	27.55678071	30.45708011	4.93062221
O	16.14299044	20.00053674	4.74970026
O	16.14399445	30.65044293	4.85406877
O	19.99198918	20.21080965	4.91233724
O	19.88638461	30.63363004	4.73766068
O	10.42720486	14.99354690	4.65276234
O	10.34303992	25.27518230	4.89972315
O	25.77524714	14.93962927	4.62697343
O	25.67674538	25.42687363	4.64513487
O	14.26374419	14.95156151	4.77054282
O	14.19861720	25.37057712	4.70602542
O	29.61343277	14.99690008	5.08574134
O	29.60586137	25.31394011	4.78686384
O	18.15194162	14.98017755	4.73572267
O	18.07754054	25.36409921	4.69445155
O	10.49928448	11.02654309	5.75434176
O	10.40718618	21.61667256	5.70658359
O	25.71362152	11.12148485	5.78009989
O	25.64766772	21.64715392	5.79436573
O	14.23161166	10.94205881	5.87882579
O	14.23158923	21.40269498	5.87156372
O	29.50115616	11.03043794	5.79546555
O	29.53881919	21.58919522	5.81558942
O	18.05715953	11.16133641	5.59599455
O	18.09253879	21.54729136	5.74253923
O	12.20329582	16.21679945	5.81402036
O	12.37750525	26.80359694	5.62647177
O	27.57928077	16.27599022	5.84865979
O	27.61392824	26.77507722	5.87651126
O	16.24974609	16.38558563	5.68877485
O	16.15472008	26.69619598	5.87812951
O	20.09817636	16.21422988	5.95292320
O	20.03158328	26.85343058	5.65948353
O	12.24238029	13.35287906	6.24841804
O	12.27101132	23.77015266	6.33842365
O	27.48479842	13.38297296	6.42487669
O	27.61818057	23.84848432	6.39327957
O	16.37502936	13.51333462	6.32179293
O	16.38458148	23.75832964	6.39593827
O	19.91653650	13.34992836	6.32360371
O	19.91689658	23.86624547	6.39047476
O	10.46744510	18.59564673	6.34909748
O	10.31645478	29.13856146	6.32278958
O	25.53099878	18.67218782	6.37186449
O	25.52380373	29.05017047	6.40279804
O	14.40679691	18.50086215	6.32437683
O	14.27245794	29.02197778	6.30884678
O	29.30847117	18.69645549	6.41383903
O	29.66226031	28.97461727	6.36802070
O	18.17266940	18.53444945	6.41049886
O	18.04545066	28.91199933	6.39087577
H	13.03003552	14.15151576	7.89412573
H	13.80231439	14.54587379	11.25729446
H	15.11321165	17.96631901	8.94143410
O	14.47099490	15.74868800	7.60803319
O	13.10617458	14.48754595	8.83833949
C	13.94038179	15.46671117	8.82119156
C	14.40152734	16.16522588	10.01745593
C	14.14460527	15.59220471	11.23004296
C	14.91115956	17.43964220	9.89473795
N	13.26614096	19.37630300	15.44927049
N	15.69371514	22.43053737	17.02784579
N	15.80153702	20.44844725	14.76737612
N	13.06900292	21.39022811	17.80510991
C	21.53024225	21.60729491	15.93813396
C	13.87579378	24.42030669	22.50103458
C	7.49166342	19.43468974	16.96415544
C	19.16560304	22.11155329	15.48965463
C	14.28132703	24.04896484	20.14655286
C	9.91157797	19.37155077	17.11955680
C	21.01742266	23.28678701	14.33999116
C	13.48619990	26.23476128	21.00092434
C	8.61392870	17.40277919	17.68256968
C	14.57970154	18.62704443	13.54198816
C	17.67852306	21.84532468	15.65488738
C	14.40846886	23.09839553	18.98188565
C	11.29742947	19.93693698	16.85175970
C	15.72879507	19.41063688	13.86922599
C	17.07415500	20.88694237	14.87879665
C	13.27371855	22.23559034	18.83841099
C	11.80368371	20.89351931	17.76931571
C	17.05864896	19.24102355	13.30198982
C	17.87790593	20.03750049	13.99903995
C	11.97889177	22.30945999	19.58937516
C	11.14654032	21.44269865	18.91517028
C	13.47116511	18.56706033	14.36614485
C	16.96054662	22.74008511	16.53087083
C	15.55706802	23.15472319	18.18463144
C	11.96070879	19.20444799	15.87901329
C	12.22395021	17.87770807	13.99597031
C	17.56743824	23.79115613	17.25528945
C	16.72707142	24.00975989	18.34419859
C	11.29909842	18.27331256	14.93031464
H	12.14179639	17.19831000	13.17866015
H	18.64340405	23.99611478	17.16365522
H	16.89018894	24.56533423	19.28406419
H	10.28515854	17.92953251	14.94321307
H	17.38291753	18.45442100	12.56129046
H	18.95716157	20.07481265	13.99880518
H	11.83794885	22.86153104	20.46884706
H	10.14942358	21.24852815	19.23708994
H	21.30381884	24.03809479	13.60842361
H	13.09495822	27.19259013	20.81012841
H	8.50185600	16.38506942	18.00023087
H	22.18269123	21.09818922	16.63571096
H	13.87528509	24.09825186	23.49893038
H	6.59001436	19.98063509	16.73149044
H	14.95418786	20.81841877	15.17016282
H	13.73558489	21.21420072	17.06406872
C	23.48496023	22.80003324	14.88159662
H	23.74749209	23.79495198	15.23887966
H	23.77218759	22.76940354	13.78448521
H	23.98792949	22.07310339	15.46196038
C	19.86181806	20.19023051	17.08704689
H	19.63211054	20.50316204	18.13254780
H	20.64962576	19.43057021	17.08951085
H	18.93358302	19.65350149	16.69225421
C	18.67270175	23.56331597	13.53532531
H	19.06785325	24.28912260	12.81069379
H	17.81035767	23.99491055	14.03694581
H	18.27099442	22.76529955	12.88792724
C	11.06938545	17.17821367	17.63328833
H	11.95327174	17.70658306	17.95740656
H	11.29815278	16.62675676	16.70479426
H	10.93959543	16.51456760	18.43254651
C	8.87799163	21.44154280	16.19159707
H	9.83656991	21.53031156	15.70140802
H	8.66538885	22.19832320	16.94150178
H	8.13562181	21.53182736	15.37813011
C	6.05977702	17.59318697	17.68932643
H	5.96302516	16.54501008	17.25680524
H	5.34989476	18.28176353	17.22443417
H	5.82378229	17.55930542	18.78204840
C	13.58785992	25.79704897	18.55377246
H	12.71791905	25.19487023	18.21436147
H	14.45454460	25.44236526	17.97157905
H	13.44322785	26.91259176	18.37562661
C	14.87242464	22.21942847	21.81814756
H	15.95000411	22.14239007	21.79072491
H	14.48529169	21.49087877	21.11984737
H	14.55100092	21.99130589	22.80513273
C	12.87300534	26.52771351	23.45037830
H	13.72879858	27.03375803	23.94434357
H	12.42308143	25.81822386	24.12268287
H	12.16107508	27.22325133	23.04929638
C	21.99338331	22.59514203	15.01339462
C	20.18840066	21.37278802	16.18561254
C	19.63084495	22.99765200	14.54332598
C	13.85684583	25.39193944	19.95658548
C	14.29974133	23.58660981	21.48216019
C	13.47073055	25.75389016	22.30405339
C	9.83152366	18.01611224	17.51000835
C	8.73766374	20.04568189	16.76158130
C	7.39424234	18.14256445	17.44073879
H	13.94147116	16.03303553	13.38136144
H	15.32648019	19.26281759	11.02706486
C	14.64940588	17.71133488	12.35388706
C	14.19243914	16.39834966	12.39985061
C	15.09228247	18.18144575	11.06789178

Ti O H C N 0
6-31G*
****

