%chk=f00011550.chk
%mem=24GB
%nproc=12
#p b3lyp/6-31G*

title

0 1
Ti	2.81187400	0.19704000	1.10336000
Ti	0.90594400	5.44057000	1.10336000
Ti	4.71781400	5.44057000	1.10336000
Ti	0.90594400	2.47241000	1.99114000
Ti	4.71781400	2.47241000	1.99114000
Ti	2.81187400	7.71594000	1.99115000
O	2.81187400	8.81302000	0.37332000
O	0.90594400	3.56949000	0.37332000
O	4.71781400	3.56949000	0.37332000
O	0.90594400	0.60134000	1.26110000
O	4.71781400	0.60134000	1.26110000
O	2.81187400	5.84486000	1.26111000
O	2.81187400	2.06812000	1.83340000
O	0.90594400	7.31164000	1.83340000
O	4.71781400	7.31164000	1.83340000
O	0.90594400	4.34349000	2.72118000
O	4.71781400	4.34349000	2.72118000
O	2.81187400	9.58701000	2.72118000
Ti	6.62374588	0.19704000	1.10336000
Ti	21.87123776	0.19704000	1.10336000
Ti	8.52968588	5.44057000	1.10336000
Ti	23.77717776	5.44057000	1.10336000
Ti	8.52968588	2.47241000	1.99114000
Ti	23.77717776	2.47241000	1.99114000
Ti	6.62374588	7.71594000	1.99115000
Ti	21.87123776	7.71594000	1.99115000
Ti	10.43561588	0.19704000	1.10336000
Ti	25.68310776	0.19704000	1.10336000
Ti	14.24749588	0.19704000	1.10336000
Ti	29.49498776	0.19704000	1.10336000
Ti	18.05936588	0.19704000	1.10336000
Ti	12.34155588	5.44057000	1.10336000
Ti	27.58904776	5.44057000	1.10336000
Ti	16.15343588	5.44057000	1.10336000
Ti	19.96530588	5.44057000	1.10336000
Ti	12.34155588	2.47241000	1.99114000
Ti	27.58904776	2.47241000	1.99114000
Ti	16.15343588	2.47241000	1.99114000
Ti	19.96530588	2.47241000	1.99114000
Ti	10.43561588	7.71594000	1.99115000
Ti	25.68310776	7.71594000	1.99115000
Ti	14.24749588	7.71594000	1.99115000
Ti	29.49498776	7.71594000	1.99115000
Ti	18.05936588	7.71594000	1.99115000
O	6.62374588	8.81302000	0.37332000
O	21.87123776	8.81302000	0.37332000
O	8.52968588	3.56949000	0.37332000
O	23.77717776	3.56949000	0.37332000
O	8.52968588	0.60134000	1.26110000
O	23.77717776	0.60134000	1.26110000
O	6.62374588	5.84486000	1.26111000
O	21.87123776	5.84486000	1.26111000
O	6.62374588	2.06812000	1.83340000
O	21.87123776	2.06812000	1.83340000
O	8.52968588	7.31164000	1.83340000
O	23.77717776	7.31164000	1.83340000
O	8.52968588	4.34349000	2.72118000
O	23.77717776	4.34349000	2.72118000
O	6.62374588	9.58701000	2.72118000
O	21.87123776	9.58701000	2.72118000
O	10.43561588	8.81302000	0.37332000
O	25.68310776	8.81302000	0.37332000
O	14.24749588	8.81302000	0.37332000
O	29.49498776	8.81302000	0.37332000
O	18.05936588	8.81302000	0.37332000
O	12.34155588	3.56949000	0.37332000
O	27.58904776	3.56949000	0.37332000
O	16.15343588	3.56949000	0.37332000
O	19.96530588	3.56949000	0.37332000
O	12.34155588	0.60134000	1.26110000
O	27.58904776	0.60134000	1.26110000
O	16.15343588	0.60134000	1.26110000
O	19.96530588	0.60134000	1.26110000
O	10.43561588	5.84486000	1.26111000
O	25.68310776	5.84486000	1.26111000
O	14.24749588	5.84486000	1.26111000
O	29.49498776	5.84486000	1.26111000
O	18.05936588	5.84486000	1.26111000
O	10.43561588	2.06812000	1.83340000
O	25.68310776	2.06812000	1.83340000
O	14.24749588	2.06812000	1.83340000
O	29.49498776	2.06812000	1.83340000
O	18.05936588	2.06812000	1.83340000
O	12.34155588	7.31164000	1.83340000
O	27.58904776	7.31164000	1.83340000
O	16.15343588	7.31164000	1.83340000
O	19.96530588	7.31164000	1.83340000
O	12.34155588	4.34349000	2.72118000
O	27.58904776	4.34349000	2.72118000
O	16.15343588	4.34349000	2.72118000
O	19.96530588	4.34349000	2.72118000
O	10.43561588	9.58701000	2.72118000
O	25.68310776	9.58701000	2.72118000
O	14.24749588	9.58701000	2.72118000
O	29.49498776	9.58701000	2.72118000
O	18.05936588	9.58701000	2.72118000
Ti	2.81187400	10.68408607	1.10336000
Ti	2.81187400	21.17113214	1.10336000
Ti	0.90594400	15.92761607	1.10336000
Ti	0.90594400	26.41466214	1.10336000
Ti	4.71781400	15.92761607	1.10336000
Ti	4.71781400	26.41466214	1.10336000
Ti	0.90594400	12.95945607	1.99114000
Ti	0.90594400	23.44650214	1.99114000
Ti	4.71781400	12.95945607	1.99114000
Ti	4.71781400	23.44650214	1.99114000
Ti	2.81187400	18.20298607	1.99115000
Ti	2.81187400	28.69003214	1.99115000
O	2.81187400	19.30006607	0.37332000
O	2.81187400	29.78711214	0.37332000
O	0.90594400	14.05653607	0.37332000
O	0.90594400	24.54358214	0.37332000
O	4.71781400	14.05653607	0.37332000
O	4.71781400	24.54358214	0.37332000
O	0.90594400	11.08838607	1.26110000
O	0.90594400	21.57543214	1.26110000
O	4.71781400	11.08838607	1.26110000
O	4.71781400	21.57543214	1.26110000
O	2.81187400	16.33190607	1.26111000
O	2.81187400	26.81895214	1.26111000
O	2.81187400	12.55516607	1.83340000
O	2.81187400	23.04221214	1.83340000
O	0.90594400	17.79868607	1.83340000
O	0.90594400	28.28573214	1.83340000
O	4.71781400	17.79868607	1.83340000
O	4.71781400	28.28573214	1.83340000
O	0.90594400	14.83053607	2.72118000
O	0.90594400	25.31758214	2.72118000
O	4.71781400	14.83053607	2.72118000
O	4.71781400	25.31758214	2.72118000
O	2.81187400	20.07405607	2.72118000
O	2.81187400	30.56110214	2.72118000
Ti	6.62374588	10.68408607	1.10336000
Ti	6.62374588	21.17113214	1.10336000
Ti	21.87123776	10.68408607	1.10336000
Ti	21.87123776	21.17113214	1.10336000
Ti	8.52968588	15.92761607	1.10336000
Ti	8.52968588	26.41466214	1.10336000
Ti	23.77717776	15.92761607	1.10336000
Ti	23.77717776	26.41466214	1.10336000
Ti	8.52968588	12.95945607	1.99114000
Ti	8.52968588	23.44650214	1.99114000
Ti	23.77717776	12.95945607	1.99114000
Ti	23.77717776	23.44650214	1.99114000
Ti	6.62374588	18.20298607	1.99115000
Ti	6.62374588	28.69003214	1.99115000
Ti	21.87123776	18.20298607	1.99115000
Ti	21.87123776	28.69003214	1.99115000
Ti	10.43561588	10.68408607	1.10336000
Ti	10.43561588	21.17113214	1.10336000
Ti	25.68310776	10.68408607	1.10336000
Ti	25.68310776	21.17113214	1.10336000
Ti	14.24749588	10.68408607	1.10336000
Ti	14.24749588	21.17113214	1.10336000
Ti	29.49498776	10.68408607	1.10336000
Ti	29.49498776	21.17113214	1.10336000
Ti	18.05936588	10.68408607	1.10336000
Ti	18.05936588	21.17113214	1.10336000
Ti	12.34155588	15.92761607	1.10336000
Ti	12.34155588	26.41466214	1.10336000
Ti	27.58904776	15.92761607	1.10336000
Ti	27.58904776	26.41466214	1.10336000
Ti	16.15343588	15.92761607	1.10336000
Ti	16.15343588	26.41466214	1.10336000
Ti	19.96530588	15.92761607	1.10336000
Ti	19.96530588	26.41466214	1.10336000
Ti	12.34155588	12.95945607	1.99114000
Ti	12.34155588	23.44650214	1.99114000
Ti	27.58904776	12.95945607	1.99114000
Ti	27.58904776	23.44650214	1.99114000
Ti	16.15343588	12.95945607	1.99114000
Ti	16.15343588	23.44650214	1.99114000
Ti	19.96530588	12.95945607	1.99114000
Ti	19.96530588	23.44650214	1.99114000
Ti	10.43561588	18.20298607	1.99115000
Ti	10.43561588	28.69003214	1.99115000
Ti	25.68310776	18.20298607	1.99115000
Ti	25.68310776	28.69003214	1.99115000
Ti	14.24749588	18.20298607	1.99115000
Ti	14.24749588	28.69003214	1.99115000
Ti	29.49498776	18.20298607	1.99115000
Ti	29.49498776	28.69003214	1.99115000
Ti	18.05936588	18.20298607	1.99115000
Ti	18.05936588	28.69003214	1.99115000
O	6.62374588	19.30006607	0.37332000
O	6.62374588	29.78711214	0.37332000
O	21.87123776	19.30006607	0.37332000
O	21.87123776	29.78711214	0.37332000
O	8.52968588	14.05653607	0.37332000
O	8.52968588	24.54358214	0.37332000
O	23.77717776	14.05653607	0.37332000
O	23.77717776	24.54358214	0.37332000
O	8.52968588	11.08838607	1.26110000
O	8.52968588	21.57543214	1.26110000
O	23.77717776	11.08838607	1.26110000
O	23.77717776	21.57543214	1.26110000
O	6.62374588	16.33190607	1.26111000
O	6.62374588	26.81895214	1.26111000
O	21.87123776	16.33190607	1.26111000
O	21.87123776	26.81895214	1.26111000
O	6.62374588	12.55516607	1.83340000
O	6.62374588	23.04221214	1.83340000
O	21.87123776	12.55516607	1.83340000
O	21.87123776	23.04221214	1.83340000
O	8.52968588	17.79868607	1.83340000
O	8.52968588	28.28573214	1.83340000
O	23.77717776	17.79868607	1.83340000
O	23.77717776	28.28573214	1.83340000
O	8.52968588	14.83053607	2.72118000
O	8.52968588	25.31758214	2.72118000
O	23.77717776	14.83053607	2.72118000
O	23.77717776	25.31758214	2.72118000
O	6.62374588	20.07405607	2.72118000
O	6.62374588	30.56110214	2.72118000
O	21.87123776	20.07405607	2.72118000
O	21.87123776	30.56110214	2.72118000
O	10.43561588	19.30006607	0.37332000
O	10.43561588	29.78711214	0.37332000
O	25.68310776	19.30006607	0.37332000
O	25.68310776	29.78711214	0.37332000
O	14.24749588	19.30006607	0.37332000
O	14.24749588	29.78711214	0.37332000
O	29.49498776	19.30006607	0.37332000
O	29.49498776	29.78711214	0.37332000
O	18.05936588	19.30006607	0.37332000
O	18.05936588	29.78711214	0.37332000
O	12.34155588	14.05653607	0.37332000
O	12.34155588	24.54358214	0.37332000
O	27.58904776	14.05653607	0.37332000
O	27.58904776	24.54358214	0.37332000
O	16.15343588	14.05653607	0.37332000
O	16.15343588	24.54358214	0.37332000
O	19.96530588	14.05653607	0.37332000
O	19.96530588	24.54358214	0.37332000
O	12.34155588	11.08838607	1.26110000
O	12.34155588	21.57543214	1.26110000
O	27.58904776	11.08838607	1.26110000
O	27.58904776	21.57543214	1.26110000
O	16.15343588	11.08838607	1.26110000
O	16.15343588	21.57543214	1.26110000
O	19.96530588	11.08838607	1.26110000
O	19.96530588	21.57543214	1.26110000
O	10.43561588	16.33190607	1.26111000
O	10.43561588	26.81895214	1.26111000
O	25.68310776	16.33190607	1.26111000
O	25.68310776	26.81895214	1.26111000
O	14.24749588	16.33190607	1.26111000
O	14.24749588	26.81895214	1.26111000
O	29.49498776	16.33190607	1.26111000
O	29.49498776	26.81895214	1.26111000
O	18.05936588	16.33190607	1.26111000
O	18.05936588	26.81895214	1.26111000
O	10.43561588	12.55516607	1.83340000
O	10.43561588	23.04221214	1.83340000
O	25.68310776	12.55516607	1.83340000
O	25.68310776	23.04221214	1.83340000
O	14.24749588	12.55516607	1.83340000
O	14.24749588	23.04221214	1.83340000
O	29.49498776	12.55516607	1.83340000
O	29.49498776	23.04221214	1.83340000
O	18.05936588	12.55516607	1.83340000
O	18.05936588	23.04221214	1.83340000
O	12.34155588	17.79868607	1.83340000
O	12.34155588	28.28573214	1.83340000
O	27.58904776	17.79868607	1.83340000
O	27.58904776	28.28573214	1.83340000
O	16.15343588	17.79868607	1.83340000
O	16.15343588	28.28573214	1.83340000
O	19.96530588	17.79868607	1.83340000
O	19.96530588	28.28573214	1.83340000
O	12.34155588	14.83053607	2.72118000
O	12.34155588	25.31758214	2.72118000
O	27.58904776	14.83053607	2.72118000
O	27.58904776	25.31758214	2.72118000
O	16.15343588	14.83053607	2.72118000
O	16.15343588	25.31758214	2.72118000
O	19.96530588	14.83053607	2.72118000
O	19.96530588	25.31758214	2.72118000
O	10.43561588	20.07405607	2.72118000
O	10.43561588	30.56110214	2.72118000
O	25.68310776	20.07405607	2.72118000
O	25.68310776	30.56110214	2.72118000
O	14.24749588	20.07405607	2.72118000
O	14.24749588	30.56110214	2.72118000
O	29.49498776	20.07405607	2.72118000
O	29.49498776	30.56110214	2.72118000
O	18.05936588	20.07405607	2.72118000
O	18.05936588	30.56110214	2.72118000
Ti	6.50381545	9.26142954	4.71190246
Ti	6.57077082	6.35345740	5.49971689
Ti	2.82613091	9.32845820	4.71564879
Ti	0.83422956	4.11546228	4.67539964
Ti	4.67410409	3.96226522	4.83840199
Ti	0.94220356	1.23461790	5.53250134
Ti	4.85031834	1.08363028	5.53761349
Ti	2.79744786	6.34662942	5.36155288
O	6.54722152	7.45231625	3.93767646
O	6.60923004	4.38994521	4.80983326
O	6.69061065	0.55136382	6.01739954
O	6.42590221	8.06194416	6.40368483
O	2.78472901	7.30878416	3.86660751
O	0.85802544	2.12503157	3.96909231
O	4.81911795	2.11418110	3.89271243
O	0.86313749	9.65103663	4.77411475
O	4.65761480	9.72591967	4.92136137
O	2.80940580	4.29982155	4.70040356
O	2.88032221	0.73034375	5.72453270
O	0.97232724	5.94549031	5.59475397
O	4.71502930	5.81839584	5.65126386
O	0.80597883	2.96705537	6.34977161
O	4.84892445	2.78067203	6.40922512
O	2.91294030	8.01505865	6.32348102
Ti	21.87631151	9.17024671	4.74553482
Ti	8.51485225	3.97084174	4.81947460
Ti	23.71486509	3.95865631	4.85546027
Ti	8.49371020	1.02789674	5.59975765
Ti	23.80853262	1.01510356	5.41680554
Ti	21.82646331	6.28767749	5.57120742
Ti	10.29756385	9.30564743	4.69164961
Ti	25.76731025	9.19759290	4.74914157
Ti	14.13130044	9.30304622	4.84616493
Ti	29.50900899	9.22823525	4.71435113
Ti	18.06352932	9.28228042	4.72119744
Ti	12.34050023	3.94411020	4.83309296
Ti	27.51576921	4.06961211	4.90233892
Ti	16.19494301	3.95700777	4.82208927
Ti	19.94500882	3.99125211	4.81090328
Ti	12.41279317	1.00628789	5.54187982
Ti	27.58075782	1.09183228	5.48417250
Ti	16.16285837	0.96136595	5.53552193
Ti	20.02944530	1.06068433	5.51715478
Ti	10.37080159	6.28436631	5.43501588
Ti	25.53025436	6.26526211	5.51011822
Ti	14.11801460	6.38796472	5.63930083
Ti	29.37394033	6.36002074	5.52887123
Ti	18.05195981	6.41647148	5.56417574
O	21.74500204	7.28579205	4.05065613
O	8.56395824	2.05383455	3.96836064
O	23.77192046	2.11360090	3.89982439
O	8.38759276	9.69916427	4.66407080
O	23.73707059	9.62479763	4.81340868
O	21.86492468	4.39716442	5.04519450
O	21.86174500	0.62862656	5.59788755
O	8.45379258	5.78321922	5.77240958
O	23.73760888	5.82772902	5.93469439
O	8.43458015	2.85951280	6.39958723
O	23.81115531	2.77428374	6.40635288
O	21.56760537	8.05580471	6.33385234
O	10.18720148	7.29512374	3.91227086
O	25.75195441	7.30294431	3.89702236
O	14.12900750	7.34755889	3.91075392
O	29.25926287	7.39155544	3.93050293
O	18.01909818	7.42196167	3.92686942
O	12.25106801	2.10055519	3.96355396
O	27.62060159	2.18669814	3.94873558
O	16.15324624	2.05960706	3.93130249
O	20.09654263	2.17390959	3.95267991
O	12.24135107	9.76283549	4.75423179
O	27.58216770	9.74536961	4.82346778
O	16.09110308	9.64116910	4.66480300
O	19.93607785	9.69249185	4.77795853
O	10.48081535	4.40323635	4.67976802
O	25.62641063	4.51852169	4.59546256
O	14.25853271	4.49059521	4.98546683
O	29.43621791	4.39923741	4.78602512
O	18.08516756	4.38902981	4.72387855
O	10.41991271	0.50487154	5.91159387
O	25.62834359	0.61854837	5.85860254
O	14.26953971	0.49327306	5.71357180
O	29.44131177	0.65096150	5.63522208
O	18.03417298	0.52205498	5.85349803
O	12.30104096	5.80377658	5.78128874
O	27.49274620	5.83814818	5.83751193
O	16.18354912	5.87152229	5.90188598
O	19.99476583	5.90048340	5.85892802
O	12.34229531	2.77377301	6.36242051
O	27.43552673	2.82197680	6.45726236
O	16.11128603	2.77184539	6.32628091
O	19.91265624	2.66287110	6.46160991
O	10.33698709	8.07787890	6.25230345
O	25.71681235	8.04242188	6.29512229
O	14.38178222	8.20605965	6.39723302
O	29.54157938	8.02580088	6.42483103
O	18.06068795	8.19333619	6.40692610
Ti	6.55444497	19.73863324	4.79157502
Ti	6.56499849	30.22516485	4.82627010
Ti	6.51012483	16.77724495	5.52190937
Ti	6.60659791	27.30571709	5.43160088
Ti	2.74831626	19.66922342	4.82359105
Ti	2.72954283	30.29351518	4.80299224
Ti	0.80815230	14.48372943	4.65964076
Ti	0.87314080	24.94691975	4.86698871
Ti	4.62156889	14.45786362	4.76200472
Ti	4.58891820	24.89848140	4.70568495
Ti	0.84140545	11.61026416	5.50258040
Ti	0.99535536	21.97938953	5.56520794
Ti	4.67648718	11.55448681	5.55893838
Ti	4.62914731	22.08665595	5.62838060
Ti	2.75437048	16.74530137	5.53171444
Ti	2.73321936	27.31278213	5.47937028
O	6.49138661	17.75820715	3.92136241
O	6.57354969	28.35194515	3.90016365
O	6.62303011	14.90098727	4.75539324
O	6.58321936	25.40781514	4.76326363
O	6.54431084	11.10974857	5.78216282
O	6.49792698	21.52725514	5.81425662
O	6.77316253	18.62944181	6.29921276
O	6.75868993	28.99234454	6.31804940
O	2.76517098	17.81495454	3.95898802
O	2.84358692	28.44603474	3.94409844
O	0.85718952	12.63560381	3.91430265
O	0.83107005	23.01751594	3.95202803
O	4.62257529	12.48964620	3.94528866
O	4.71761983	22.96315436	3.92214516
O	0.92933612	20.17980837	4.66519314
O	0.93404425	30.77182731	4.98455915
O	4.64152714	20.15939672	4.81897124
O	4.71547346	30.72044823	5.02251447
O	2.69936805	14.92462467	4.69080638
O	2.76774919	25.47680294	4.73189183
O	2.73648924	11.03650021	5.74209339
O	2.84522397	21.46997788	5.94912034
O	0.87597679	16.35218884	5.75582977
O	0.78681214	26.67184623	5.81125235
O	4.67701975	16.23981035	5.79033038
O	4.61018972	26.80561857	5.66648207
O	1.07754794	13.36464129	6.28118506
O	1.08361819	23.78366787	6.35773526
O	4.49656889	13.34597014	6.43927107
O	4.59508660	23.90652249	6.34892543
O	2.82042436	18.46972370	6.30397738
O	2.60630497	29.04213918	6.49319380
Ti	21.90100145	19.76147823	4.80908061
Ti	21.90051429	30.20936868	4.83324313
Ti	8.51596793	14.46919389	4.85942514
Ti	8.40599137	24.98012645	4.70444625
Ti	23.77876696	14.39550165	4.70338369
Ti	23.84161550	24.96634145	4.67632684
Ti	8.37548810	11.54449486	5.43329136
Ti	8.37088242	22.07280206	5.49000851
Ti	23.61011735	11.43237019	5.49531790
Ti	23.74735983	22.04903516	5.44505071
Ti	21.93229659	16.87164156	5.55628869
Ti	21.93993620	27.25243971	5.38251480
Ti	10.37112044	19.74042183	4.69532773
Ti	10.37180718	30.24342961	4.84332792
Ti	25.74464729	19.69964577	4.80127863
Ti	25.74511214	30.10013401	4.66824305
Ti	14.23033739	19.63003942	4.66930461
Ti	14.23369226	30.17473880	4.75749317
Ti	29.44357108	19.72167379	4.67018445
Ti	29.52955509	30.21832904	4.72859204
Ti	18.06514511	19.65317485	4.87699855
Ti	18.06797539	30.17227289	4.73735134
Ti	12.30475239	14.52427328	4.68056383
Ti	12.34824521	24.91114060	4.87544095
Ti	27.54220965	14.48292944	4.73154502
Ti	27.62078061	24.86929138	4.78468592
Ti	16.13884721	14.43525973	4.64464646
Ti	16.26045091	24.97851971	4.64553736
Ti	20.03551742	14.44444204	4.92732172
Ti	20.04545202	25.00897574	4.71766736
Ti	12.26171378	11.61524106	5.52923262
Ti	12.43160875	21.90287853	5.38183319
Ti	27.46381193	11.51490782	5.56662807
Ti	27.61112445	21.97595585	5.55164891
Ti	16.16794714	11.52769701	5.45260273
Ti	16.18584074	22.03356299	5.58775954
Ti	19.86437327	11.49468738	5.58590555
Ti	19.92967038	22.08230903	5.51487830
Ti	10.31742583	16.85419909	5.49120921
Ti	10.34943443	27.25260037	5.49079262
Ti	25.69486779	16.70038720	5.49862339
Ti	25.71285166	27.19869928	5.49702554
Ti	14.25907345	16.79774063	5.87929671
Ti	14.21377122	27.19360728	5.65357928
Ti	29.38213492	16.76665502	5.60272390
Ti	29.50178934	27.31598384	5.45637015
Ti	18.06978082	16.65215821	5.35801058
Ti	18.16385962	27.29168554	5.53552947
O	21.88541074	17.79441525	3.99473158
O	21.96648083	28.44167511	3.94866098
O	8.38266002	12.69786394	3.95382147
O	8.25778838	23.06991440	3.96466900
O	23.59464109	12.58421005	3.97708627
O	23.71220800	23.02948449	3.91109879
O	8.42708821	20.23784756	4.78551653
O	8.40505585	30.64792484	4.79033904
O	23.81811058	20.10453984	4.87852974
O	23.80500874	30.58514778	4.79579711
O	21.90052427	14.92347831	4.80097733
O	21.87993460	25.36725889	4.60383741
O	21.77215209	11.00242307	5.82292503
O	21.79722964	21.56512525	5.69502397
O	8.43152404	16.27683893	5.83595728
O	8.50180899	26.79492047	5.56855923
O	23.82660070	16.23807464	5.89648351
O	23.75492151	26.81228652	5.73347755
O	8.47898550	13.20924209	6.38752807
O	8.37320543	23.82845299	6.36427996
O	23.74745087	13.29040895	6.28123612
O	23.75034004	23.81016709	6.33115611
O	21.87385737	18.65631534	6.41385289
O	21.80768334	29.00548159	6.33140046
O	10.45945273	17.76886241	3.86639910
O	10.34093897	28.30319810	3.96007996
O	25.65186582	17.86960864	3.95927214
O	25.62345378	28.25968824	3.91032590
O	14.37896945	17.76701632	3.96118902
O	14.24390686	28.33834390	4.00270847
O	29.59847272	17.85047232	3.92186121
O	29.35817481	28.36358879	3.92693601
O	17.96544850	17.86329506	3.90090989
O	18.13698977	28.32816117	3.97847568
O	12.34259582	12.53885175	3.88847747
O	12.64937179	23.11708738	3.92124970
O	27.60185588	12.63597090	3.97968565
O	27.60863518	22.98956339	3.97699958
O	16.12207810	12.46662919	3.81098813
O	16.13459779	23.08921071	3.98991903
O	19.99602368	12.59301443	4.02519401
O	20.03859751	23.18005785	3.98537875
O	12.36492768	19.98386437	4.72238318
O	12.30495178	30.59622957	4.82672797
O	27.57219474	20.13508908	4.77207439
O	27.63750574	30.63954084	4.83836090
O	16.17223969	20.19677032	4.70072284
O	16.12053583	30.44616755	4.82374885
O	19.95783223	20.22413974	4.62650476
O	19.95314272	30.63728509	4.83504504
O	10.39702096	14.83047556	4.88059579
O	10.49098370	25.24858045	4.79724418
O	25.68249289	14.91223184	4.66410864
O	25.65196462	25.31427160	4.84759982
O	14.19346940	14.88201790	4.85529791
O	14.20840811	25.34117888	4.94413305
O	29.42114078	14.90868085	4.80544594
O	29.44817553	25.43696475	4.79159029
O	18.12877979	14.71071317	5.09427866
O	18.15808548	25.56397925	4.62905003
O	10.41171133	11.07573632	5.65719295
O	10.45807685	21.52095430	5.66462775
O	25.54948001	10.98562579	5.76937313
O	25.69094051	21.56077400	5.93400614
O	14.19622915	11.16239446	5.76640346
O	14.27075720	21.50761575	5.83690593
O	29.56237340	11.04906667	5.86611358
O	29.54932917	21.45776556	5.83518235
O	17.98718914	11.04470063	5.73789569
O	18.10992433	21.42745223	5.78188159
O	12.33524182	16.35250579	5.54657907
O	12.23732561	26.70400139	6.02050486
O	27.52716467	16.29354235	5.89306231
O	27.58937879	26.71459483	5.80761770
O	16.11446336	16.34399476	5.40796215
O	16.17274733	26.90297999	5.75518539
O	20.04198070	16.28618106	5.83587255
O	20.03081321	26.87598964	5.57962058
O	12.31464874	13.35625700	6.27969184
O	12.31648578	23.59736456	6.39516264
O	27.67845528	13.45413349	6.35747708
O	27.70347233	23.79240515	6.36705845
O	16.06179153	13.18687023	6.34524032
O	16.35826410	23.79535746	6.26595173
O	19.94819781	13.22590093	6.51142995
O	19.82208363	23.92306203	6.45497158
O	10.44579686	18.56227663	6.32840383
O	10.34007257	28.96402580	6.30991035
O	25.90674405	18.56385990	6.39988185
O	25.68902458	28.98150549	6.30061140
O	14.29421994	18.69847664	6.41391747
O	14.03327018	28.98126145	6.38257080
O	29.55842275	18.50701261	6.30709577
O	29.66991813	29.05892278	6.35749279
O	18.23813427	18.41339573	6.30817407
O	18.23414743	29.07318825	6.35911514
H	15.93181403	14.28953531	8.15977958
H	14.67374161	14.91880242	11.32255997
H	13.86636869	18.18744730	8.60513979
O	14.33731743	15.98908312	7.55209760
O	15.58857590	14.69355054	8.98183120
C	14.74896673	15.70627702	8.73130634
C	14.28000138	16.46286035	9.84684498
C	14.42571016	16.00658346	11.19009269
C	13.96734001	17.80491755	9.68076786
N	13.13810429	19.47205717	15.54560190
N	15.65810243	22.47403136	16.74356602
N	15.19507717	21.00906258	14.27592199
N	13.72849353	20.85233441	18.06076147
C	20.31903747	23.96793902	13.49390065
C	16.42685304	23.41608291	22.62650481
C	8.29391574	18.98299545	19.11313714
C	17.93133558	23.75301333	13.99010189
C	15.43818144	23.27020436	20.45139457
C	10.64459374	18.65096894	18.42950728
C	18.66452445	25.41064582	12.41085985
C	15.21618690	25.32236612	21.78470039
C	9.47721575	17.02527230	19.84567313
C	13.90555595	19.05041957	13.27339577
C	16.84803024	22.91903071	14.55905602
C	15.12528523	22.60674942	19.12505412
C	11.88003329	19.20423504	17.71447359
C	14.87381041	20.11321848	13.29752181
C	16.25486508	21.76777832	13.91436023
C	14.14815483	21.61811707	19.13851143
C	12.65582793	20.09752522	18.50578609
C	15.79037898	20.28674938	12.22037576
C	16.68236216	21.27255000	12.57658603
C	13.35614166	21.35904219	20.29534224
C	12.40158635	20.45306015	19.86661281
C	13.11184312	18.71091804	14.36489256
C	16.52194866	23.19534126	15.90583394
C	15.81348144	23.08905783	17.98942604
C	12.19561809	18.88123859	16.35536478
C	12.13036728	17.72562858	14.43594741
C	17.25093378	24.20078779	16.68319292
C	16.82888834	24.08553994	17.97231778
C	11.50981991	17.81973630	15.68584917
H	11.80288716	17.12412782	13.59328965
H	18.05689397	24.80973348	16.31238529
H	17.21734397	24.71576581	18.78789136
H	10.74384803	17.19774977	16.08078558
H	15.85257554	19.66865127	11.27211702
H	17.53477906	21.65607031	12.01856564
H	13.54124638	21.85650686	21.23438422
H	11.52222596	20.03709581	20.41411211
H	18.55233624	26.21886575	11.66619092
H	14.78920142	26.33683245	21.86689230
H	9.54642781	16.07794971	20.46218799
H	21.32067355	23.56182218	13.47517790
H	17.08149246	22.98369926	23.37458457
H	7.50141406	19.70359823	19.23889837
H	14.74957353	21.08591251	15.19034468
H	14.30569486	20.71568284	17.19744059
C	21.12058494	25.72106482	12.02379713
H	21.46614033	26.60554832	12.58635874
H	20.93778009	26.07727414	10.98178209
H	21.99802670	25.08369457	12.00448108
C	19.49787022	22.18371456	15.13747223
H	18.91667070	21.39501167	14.71980534
H	19.05155012	22.50222372	16.07256859
H	20.50291041	21.79150554	15.22326856
C	16.22015457	25.26518099	12.89503315
H	16.05622028	25.38599565	11.86008831
H	16.08208569	26.19920971	13.41665761
H	15.57606466	24.42589748	13.21192932
C	11.87504670	16.60325891	19.16245588
H	11.70290437	15.68289017	19.69668847
H	12.71837143	17.15327823	19.54405689
H	12.08376891	16.25473010	18.13274362
C	9.33892954	20.72739299	17.75621749
H	8.51931770	20.91190154	17.07583332
H	10.24546197	20.87425728	17.15113642
H	9.32514001	21.53469673	18.50238112
C	7.20250713	17.35912437	20.75117627
H	7.55506563	17.14250787	21.75738010
H	6.73568678	16.42935919	20.32620725
H	6.49591211	18.20086593	20.65906958
C	13.98921649	25.17010389	19.66905682
H	14.42455331	25.24534624	18.66655175
H	13.63343451	26.18347265	19.97821484
H	13.13889617	24.47543068	19.66532608
C	16.86898554	21.35821513	21.24033948
H	17.92536398	21.37670321	21.53691769
H	16.87328322	20.99718679	20.23377623
H	16.44125797	20.65286327	21.96312645
C	16.25657244	25.47428802	24.03578010
H	17.32318248	25.54836912	24.22285654
H	15.77942948	25.06946964	24.97355527
H	15.85952791	26.48768598	24.03408720
C	19.97868888	25.00095283	12.61861886
C	19.27975983	23.35800678	14.20750631
C	17.62537007	24.76834467	13.09950717
C	14.93247960	24.55240749	20.59135217
C	16.22162879	22.70152668	21.41125865
C	15.96741006	24.73392866	22.79691003
C	10.63544412	17.43816625	19.14875524
C	9.43278603	19.39970269	18.38487356
C	8.32017781	17.77230033	19.86037658
H	14.54364235	16.55017540	13.29941822
H	13.54099514	19.69578084	10.64992398
C	13.94525819	18.19029640	12.09217592
C	14.27506465	16.85192297	12.27181798
C	13.81096127	18.64452553	10.77807272

Ti O H C N 0
6-31G*
****

