%chk=f00011416.chk
%mem=24GB
%nproc=12
#p b3lyp/6-31G*

title

0 1
Ti	2.81187400	0.19704000	1.10336000
Ti	0.90594400	5.44057000	1.10336000
Ti	4.71781400	5.44057000	1.10336000
Ti	0.90594400	2.47241000	1.99114000
Ti	4.71781400	2.47241000	1.99114000
Ti	2.81187400	7.71594000	1.99115000
O	2.81187400	8.81302000	0.37332000
O	0.90594400	3.56949000	0.37332000
O	4.71781400	3.56949000	0.37332000
O	0.90594400	0.60134000	1.26110000
O	4.71781400	0.60134000	1.26110000
O	2.81187400	5.84486000	1.26111000
O	2.81187400	2.06812000	1.83340000
O	0.90594400	7.31164000	1.83340000
O	4.71781400	7.31164000	1.83340000
O	0.90594400	4.34349000	2.72118000
O	4.71781400	4.34349000	2.72118000
O	2.81187400	9.58701000	2.72118000
Ti	6.62374588	0.19704000	1.10336000
Ti	21.87123776	0.19704000	1.10336000
Ti	8.52968588	5.44057000	1.10336000
Ti	23.77717776	5.44057000	1.10336000
Ti	8.52968588	2.47241000	1.99114000
Ti	23.77717776	2.47241000	1.99114000
Ti	6.62374588	7.71594000	1.99115000
Ti	21.87123776	7.71594000	1.99115000
Ti	10.43561588	0.19704000	1.10336000
Ti	25.68310776	0.19704000	1.10336000
Ti	14.24749588	0.19704000	1.10336000
Ti	29.49498776	0.19704000	1.10336000
Ti	18.05936588	0.19704000	1.10336000
Ti	12.34155588	5.44057000	1.10336000
Ti	27.58904776	5.44057000	1.10336000
Ti	16.15343588	5.44057000	1.10336000
Ti	19.96530588	5.44057000	1.10336000
Ti	12.34155588	2.47241000	1.99114000
Ti	27.58904776	2.47241000	1.99114000
Ti	16.15343588	2.47241000	1.99114000
Ti	19.96530588	2.47241000	1.99114000
Ti	10.43561588	7.71594000	1.99115000
Ti	25.68310776	7.71594000	1.99115000
Ti	14.24749588	7.71594000	1.99115000
Ti	29.49498776	7.71594000	1.99115000
Ti	18.05936588	7.71594000	1.99115000
O	6.62374588	8.81302000	0.37332000
O	21.87123776	8.81302000	0.37332000
O	8.52968588	3.56949000	0.37332000
O	23.77717776	3.56949000	0.37332000
O	8.52968588	0.60134000	1.26110000
O	23.77717776	0.60134000	1.26110000
O	6.62374588	5.84486000	1.26111000
O	21.87123776	5.84486000	1.26111000
O	6.62374588	2.06812000	1.83340000
O	21.87123776	2.06812000	1.83340000
O	8.52968588	7.31164000	1.83340000
O	23.77717776	7.31164000	1.83340000
O	8.52968588	4.34349000	2.72118000
O	23.77717776	4.34349000	2.72118000
O	6.62374588	9.58701000	2.72118000
O	21.87123776	9.58701000	2.72118000
O	10.43561588	8.81302000	0.37332000
O	25.68310776	8.81302000	0.37332000
O	14.24749588	8.81302000	0.37332000
O	29.49498776	8.81302000	0.37332000
O	18.05936588	8.81302000	0.37332000
O	12.34155588	3.56949000	0.37332000
O	27.58904776	3.56949000	0.37332000
O	16.15343588	3.56949000	0.37332000
O	19.96530588	3.56949000	0.37332000
O	12.34155588	0.60134000	1.26110000
O	27.58904776	0.60134000	1.26110000
O	16.15343588	0.60134000	1.26110000
O	19.96530588	0.60134000	1.26110000
O	10.43561588	5.84486000	1.26111000
O	25.68310776	5.84486000	1.26111000
O	14.24749588	5.84486000	1.26111000
O	29.49498776	5.84486000	1.26111000
O	18.05936588	5.84486000	1.26111000
O	10.43561588	2.06812000	1.83340000
O	25.68310776	2.06812000	1.83340000
O	14.24749588	2.06812000	1.83340000
O	29.49498776	2.06812000	1.83340000
O	18.05936588	2.06812000	1.83340000
O	12.34155588	7.31164000	1.83340000
O	27.58904776	7.31164000	1.83340000
O	16.15343588	7.31164000	1.83340000
O	19.96530588	7.31164000	1.83340000
O	12.34155588	4.34349000	2.72118000
O	27.58904776	4.34349000	2.72118000
O	16.15343588	4.34349000	2.72118000
O	19.96530588	4.34349000	2.72118000
O	10.43561588	9.58701000	2.72118000
O	25.68310776	9.58701000	2.72118000
O	14.24749588	9.58701000	2.72118000
O	29.49498776	9.58701000	2.72118000
O	18.05936588	9.58701000	2.72118000
Ti	2.81187400	10.68408607	1.10336000
Ti	2.81187400	21.17113214	1.10336000
Ti	0.90594400	15.92761607	1.10336000
Ti	0.90594400	26.41466214	1.10336000
Ti	4.71781400	15.92761607	1.10336000
Ti	4.71781400	26.41466214	1.10336000
Ti	0.90594400	12.95945607	1.99114000
Ti	0.90594400	23.44650214	1.99114000
Ti	4.71781400	12.95945607	1.99114000
Ti	4.71781400	23.44650214	1.99114000
Ti	2.81187400	18.20298607	1.99115000
Ti	2.81187400	28.69003214	1.99115000
O	2.81187400	19.30006607	0.37332000
O	2.81187400	29.78711214	0.37332000
O	0.90594400	14.05653607	0.37332000
O	0.90594400	24.54358214	0.37332000
O	4.71781400	14.05653607	0.37332000
O	4.71781400	24.54358214	0.37332000
O	0.90594400	11.08838607	1.26110000
O	0.90594400	21.57543214	1.26110000
O	4.71781400	11.08838607	1.26110000
O	4.71781400	21.57543214	1.26110000
O	2.81187400	16.33190607	1.26111000
O	2.81187400	26.81895214	1.26111000
O	2.81187400	12.55516607	1.83340000
O	2.81187400	23.04221214	1.83340000
O	0.90594400	17.79868607	1.83340000
O	0.90594400	28.28573214	1.83340000
O	4.71781400	17.79868607	1.83340000
O	4.71781400	28.28573214	1.83340000
O	0.90594400	14.83053607	2.72118000
O	0.90594400	25.31758214	2.72118000
O	4.71781400	14.83053607	2.72118000
O	4.71781400	25.31758214	2.72118000
O	2.81187400	20.07405607	2.72118000
O	2.81187400	30.56110214	2.72118000
Ti	6.62374588	10.68408607	1.10336000
Ti	6.62374588	21.17113214	1.10336000
Ti	21.87123776	10.68408607	1.10336000
Ti	21.87123776	21.17113214	1.10336000
Ti	8.52968588	15.92761607	1.10336000
Ti	8.52968588	26.41466214	1.10336000
Ti	23.77717776	15.92761607	1.10336000
Ti	23.77717776	26.41466214	1.10336000
Ti	8.52968588	12.95945607	1.99114000
Ti	8.52968588	23.44650214	1.99114000
Ti	23.77717776	12.95945607	1.99114000
Ti	23.77717776	23.44650214	1.99114000
Ti	6.62374588	18.20298607	1.99115000
Ti	6.62374588	28.69003214	1.99115000
Ti	21.87123776	18.20298607	1.99115000
Ti	21.87123776	28.69003214	1.99115000
Ti	10.43561588	10.68408607	1.10336000
Ti	10.43561588	21.17113214	1.10336000
Ti	25.68310776	10.68408607	1.10336000
Ti	25.68310776	21.17113214	1.10336000
Ti	14.24749588	10.68408607	1.10336000
Ti	14.24749588	21.17113214	1.10336000
Ti	29.49498776	10.68408607	1.10336000
Ti	29.49498776	21.17113214	1.10336000
Ti	18.05936588	10.68408607	1.10336000
Ti	18.05936588	21.17113214	1.10336000
Ti	12.34155588	15.92761607	1.10336000
Ti	12.34155588	26.41466214	1.10336000
Ti	27.58904776	15.92761607	1.10336000
Ti	27.58904776	26.41466214	1.10336000
Ti	16.15343588	15.92761607	1.10336000
Ti	16.15343588	26.41466214	1.10336000
Ti	19.96530588	15.92761607	1.10336000
Ti	19.96530588	26.41466214	1.10336000
Ti	12.34155588	12.95945607	1.99114000
Ti	12.34155588	23.44650214	1.99114000
Ti	27.58904776	12.95945607	1.99114000
Ti	27.58904776	23.44650214	1.99114000
Ti	16.15343588	12.95945607	1.99114000
Ti	16.15343588	23.44650214	1.99114000
Ti	19.96530588	12.95945607	1.99114000
Ti	19.96530588	23.44650214	1.99114000
Ti	10.43561588	18.20298607	1.99115000
Ti	10.43561588	28.69003214	1.99115000
Ti	25.68310776	18.20298607	1.99115000
Ti	25.68310776	28.69003214	1.99115000
Ti	14.24749588	18.20298607	1.99115000
Ti	14.24749588	28.69003214	1.99115000
Ti	29.49498776	18.20298607	1.99115000
Ti	29.49498776	28.69003214	1.99115000
Ti	18.05936588	18.20298607	1.99115000
Ti	18.05936588	28.69003214	1.99115000
O	6.62374588	19.30006607	0.37332000
O	6.62374588	29.78711214	0.37332000
O	21.87123776	19.30006607	0.37332000
O	21.87123776	29.78711214	0.37332000
O	8.52968588	14.05653607	0.37332000
O	8.52968588	24.54358214	0.37332000
O	23.77717776	14.05653607	0.37332000
O	23.77717776	24.54358214	0.37332000
O	8.52968588	11.08838607	1.26110000
O	8.52968588	21.57543214	1.26110000
O	23.77717776	11.08838607	1.26110000
O	23.77717776	21.57543214	1.26110000
O	6.62374588	16.33190607	1.26111000
O	6.62374588	26.81895214	1.26111000
O	21.87123776	16.33190607	1.26111000
O	21.87123776	26.81895214	1.26111000
O	6.62374588	12.55516607	1.83340000
O	6.62374588	23.04221214	1.83340000
O	21.87123776	12.55516607	1.83340000
O	21.87123776	23.04221214	1.83340000
O	8.52968588	17.79868607	1.83340000
O	8.52968588	28.28573214	1.83340000
O	23.77717776	17.79868607	1.83340000
O	23.77717776	28.28573214	1.83340000
O	8.52968588	14.83053607	2.72118000
O	8.52968588	25.31758214	2.72118000
O	23.77717776	14.83053607	2.72118000
O	23.77717776	25.31758214	2.72118000
O	6.62374588	20.07405607	2.72118000
O	6.62374588	30.56110214	2.72118000
O	21.87123776	20.07405607	2.72118000
O	21.87123776	30.56110214	2.72118000
O	10.43561588	19.30006607	0.37332000
O	10.43561588	29.78711214	0.37332000
O	25.68310776	19.30006607	0.37332000
O	25.68310776	29.78711214	0.37332000
O	14.24749588	19.30006607	0.37332000
O	14.24749588	29.78711214	0.37332000
O	29.49498776	19.30006607	0.37332000
O	29.49498776	29.78711214	0.37332000
O	18.05936588	19.30006607	0.37332000
O	18.05936588	29.78711214	0.37332000
O	12.34155588	14.05653607	0.37332000
O	12.34155588	24.54358214	0.37332000
O	27.58904776	14.05653607	0.37332000
O	27.58904776	24.54358214	0.37332000
O	16.15343588	14.05653607	0.37332000
O	16.15343588	24.54358214	0.37332000
O	19.96530588	14.05653607	0.37332000
O	19.96530588	24.54358214	0.37332000
O	12.34155588	11.08838607	1.26110000
O	12.34155588	21.57543214	1.26110000
O	27.58904776	11.08838607	1.26110000
O	27.58904776	21.57543214	1.26110000
O	16.15343588	11.08838607	1.26110000
O	16.15343588	21.57543214	1.26110000
O	19.96530588	11.08838607	1.26110000
O	19.96530588	21.57543214	1.26110000
O	10.43561588	16.33190607	1.26111000
O	10.43561588	26.81895214	1.26111000
O	25.68310776	16.33190607	1.26111000
O	25.68310776	26.81895214	1.26111000
O	14.24749588	16.33190607	1.26111000
O	14.24749588	26.81895214	1.26111000
O	29.49498776	16.33190607	1.26111000
O	29.49498776	26.81895214	1.26111000
O	18.05936588	16.33190607	1.26111000
O	18.05936588	26.81895214	1.26111000
O	10.43561588	12.55516607	1.83340000
O	10.43561588	23.04221214	1.83340000
O	25.68310776	12.55516607	1.83340000
O	25.68310776	23.04221214	1.83340000
O	14.24749588	12.55516607	1.83340000
O	14.24749588	23.04221214	1.83340000
O	29.49498776	12.55516607	1.83340000
O	29.49498776	23.04221214	1.83340000
O	18.05936588	12.55516607	1.83340000
O	18.05936588	23.04221214	1.83340000
O	12.34155588	17.79868607	1.83340000
O	12.34155588	28.28573214	1.83340000
O	27.58904776	17.79868607	1.83340000
O	27.58904776	28.28573214	1.83340000
O	16.15343588	17.79868607	1.83340000
O	16.15343588	28.28573214	1.83340000
O	19.96530588	17.79868607	1.83340000
O	19.96530588	28.28573214	1.83340000
O	12.34155588	14.83053607	2.72118000
O	12.34155588	25.31758214	2.72118000
O	27.58904776	14.83053607	2.72118000
O	27.58904776	25.31758214	2.72118000
O	16.15343588	14.83053607	2.72118000
O	16.15343588	25.31758214	2.72118000
O	19.96530588	14.83053607	2.72118000
O	19.96530588	25.31758214	2.72118000
O	10.43561588	20.07405607	2.72118000
O	10.43561588	30.56110214	2.72118000
O	25.68310776	20.07405607	2.72118000
O	25.68310776	30.56110214	2.72118000
O	14.24749588	20.07405607	2.72118000
O	14.24749588	30.56110214	2.72118000
O	29.49498776	20.07405607	2.72118000
O	29.49498776	30.56110214	2.72118000
O	18.05936588	20.07405607	2.72118000
O	18.05936588	30.56110214	2.72118000
Ti	6.69048838	9.24912940	4.82964675
Ti	6.71983902	6.29027657	5.46880179
Ti	2.84433686	9.20648279	4.82247292
Ti	1.00208393	3.86441163	4.85141814
Ti	4.74273531	4.04877363	4.95592900
Ti	0.91741347	0.93108337	5.49132363
Ti	4.67131537	1.03150073	5.33942476
Ti	2.80220062	6.35011556	5.56411326
O	6.64585864	7.31492484	3.89895723
O	6.67063610	4.31998801	4.85498615
O	6.56889956	0.60235263	5.65985135
O	6.63045757	8.00061686	6.29216119
O	2.60686786	7.30671876	3.98929970
O	1.00411160	2.08339318	3.88379144
O	4.58864883	2.16385345	3.91494182
O	0.83063356	9.59408685	4.74753868
O	4.72843423	9.58234750	4.97641209
O	2.79431953	4.48215216	4.72949435
O	2.79860288	0.56541944	5.70930479
O	0.94256511	5.76675532	6.09044644
O	4.74294521	5.90946371	5.74820188
O	0.97884138	2.70524865	6.36118259
O	4.65789817	2.77010442	6.34452022
O	2.85215162	7.99352441	6.48010146
Ti	21.91920049	9.22616039	4.79570851
Ti	8.51855858	3.99076073	4.69224253
Ti	23.76530525	3.98605086	4.69767462
Ti	8.48277001	1.09060513	5.41304592
Ti	23.67776949	1.11113949	5.48285459
Ti	21.95788105	6.26080402	5.49253793
Ti	10.38758980	9.26238718	4.81804335
Ti	25.64427655	9.14468465	4.82427982
Ti	14.23830758	9.25813000	4.71454172
Ti	29.35500185	9.18643103	4.74800710
Ti	18.11581814	9.24725705	4.81916818
Ti	12.37620606	3.92209806	4.71068773
Ti	27.73626320	3.91512127	4.73156225
Ti	16.22244936	3.97265804	4.74159439
Ti	20.03890303	3.85003523	4.62958423
Ti	12.36117894	1.00954029	5.58155129
Ti	27.61560835	1.04616089	5.55220020
Ti	16.17885260	1.00555497	5.55475648
Ti	19.91535080	0.97419157	5.54056945
Ti	10.45337309	6.29508433	5.56385456
Ti	25.77970156	6.20378411	5.45332412
Ti	14.27396305	6.31547082	5.40530565
Ti	29.60391294	6.21812718	5.45104799
Ti	18.08791961	6.22333274	5.48498964
O	21.71881568	7.36371489	4.00078235
O	8.64316725	2.18623776	3.89549205
O	23.73962311	2.13525892	3.96210755
O	8.51564447	9.77610223	4.76908074
O	23.79719689	9.75429918	4.64812698
O	21.89403327	4.36557122	4.77272062
O	21.76168250	0.49666986	5.72363416
O	8.55037650	5.89796840	5.75796746
O	23.85074357	5.75548947	5.67446093
O	8.35538369	2.80935012	6.31356637
O	23.60061850	2.88713239	6.33615683
O	22.05680334	7.97791905	6.33152265
O	10.48475414	7.35222236	3.98352018
O	25.76484105	7.30895467	3.94360596
O	14.30348369	7.39844523	3.89024119
O	29.58813065	7.27920474	3.88532510
O	17.88478048	7.42082077	3.96036058
O	12.35400555	2.06215277	3.95073176
O	27.61722460	2.04176982	3.94069810
O	15.95758189	2.04365972	3.96335338
O	20.04186234	1.87193043	3.85893455
O	12.33283879	9.64266666	4.65644680
O	27.51225408	9.59748640	4.75598159
O	16.19813432	9.62478193	4.69049757
O	19.94737868	9.64520336	4.92429710
O	10.46195170	4.47468758	4.72630413
O	25.77369939	4.31837135	4.74277960
O	14.30325549	4.26749434	4.77323675
O	29.72093511	4.41246792	4.73818637
O	18.21411192	4.36305954	4.69960436
O	10.39992971	0.67233651	5.61782952
O	25.69645560	0.49651086	5.86048242
O	14.26525196	0.49796040	5.90560721
O	29.55496710	0.59949727	5.73514517
O	18.00546534	0.45810478	5.87476413
O	12.49034603	5.71002592	5.90462740
O	27.74131887	5.79095322	5.47844621
O	16.23474128	5.75791791	5.72239188
O	20.04283600	5.86151447	5.62748576
O	12.27143275	2.76699441	6.29722835
O	27.71988034	2.76918552	6.37406380
O	16.15727337	2.83204980	6.35480664
O	20.22537682	2.63495852	6.26573000
O	10.43991609	7.97391986	6.49500621
O	25.70553162	7.94832834	6.48444877
O	14.27682903	8.00051283	6.32221133
O	29.49789108	8.06034327	6.29453115
O	18.21606555	8.03588936	6.36728649
Ti	6.59806187	19.75162706	4.75555662
Ti	6.58003743	30.27638052	4.72149974
Ti	6.61303860	16.82976979	5.54789320
Ti	6.66914760	27.33740029	5.50291998
Ti	2.80842975	19.74531344	4.68385027
Ti	2.75553622	30.17750985	4.69215690
Ti	0.86822614	14.38780522	4.80087452
Ti	0.88999836	25.00245483	4.69574646
Ti	4.68806935	14.43069644	4.77733587
Ti	4.73356214	25.01914021	4.82353113
Ti	0.88657190	11.41138185	5.41117684
Ti	0.89568724	22.10322107	5.43707601
Ti	4.68832504	11.49394355	5.46527167
Ti	4.78527643	21.99734180	5.55160877
Ti	2.73081368	16.81412873	5.47787445
Ti	2.92485413	27.28775234	5.64667314
O	6.77904318	17.88570862	3.96636445
O	6.71677350	28.35855993	3.89911471
O	6.62660108	14.95100436	4.65103317
O	6.61540200	25.37211524	4.76235461
O	6.57228681	11.03923060	5.71319346
O	6.65691642	21.62776883	5.55889994
O	6.57246482	18.62044151	6.42904336
O	6.67180098	29.12555822	6.35523037
O	3.01961186	17.82098482	3.91466540
O	2.87923727	28.25655516	3.90989495
O	1.05517968	12.60827382	3.91855063
O	0.81085147	23.18889003	3.92885682
O	4.66991237	12.52449095	3.89394362
O	4.75706530	23.12052701	3.99232489
O	0.92332883	20.18802866	4.69968781
O	0.84459069	30.44904285	5.01065565
O	4.68395521	20.21868170	4.72345891
O	4.67716719	30.48321797	4.72200895
O	2.79150750	14.86685853	4.88228117
O	2.83412757	25.33907679	4.82447667
O	2.76450907	10.97915531	5.80521720
O	2.77669910	21.53806501	5.64707964
O	0.90390469	16.32963386	5.67001956
O	0.86190328	26.72087025	5.78798000
O	4.74590902	16.21464803	5.77276595
O	4.80838455	26.84011194	5.88471012
O	0.93400259	13.18049850	6.40144672
O	0.70926235	23.86056533	6.28185062
O	4.61531019	13.28084390	6.42667623
O	4.86881314	23.81193048	6.44274965
O	2.78416690	18.56495750	6.21870754
O	3.06502332	29.10915627	6.44637737
Ti	21.82148660	19.68558833	4.68809162
Ti	21.89290605	30.18355573	4.72860408
Ti	8.49607832	14.42285186	4.73315937
Ti	8.47074491	24.95915871	4.73322227
Ti	23.68795045	14.59673078	4.72947354
Ti	23.77412689	25.07768227	4.87369664
Ti	8.47417765	11.55157123	5.49018510
Ti	8.54784835	21.99629799	5.45444637
Ti	23.65216328	11.70824192	5.51066122
Ti	23.71395250	22.08304818	5.40325338
Ti	21.71305493	16.73681068	5.55207422
Ti	21.79642649	27.23221745	5.49581705
Ti	10.34248747	19.64029023	4.79863087
Ti	10.49015162	30.30077252	4.78325546
Ti	25.64614993	19.82501535	4.72363231
Ti	25.66556612	30.24593432	4.85342193
Ti	14.03729569	19.66849923	4.68506597
Ti	14.24616529	30.19174790	4.67857471
Ti	29.49133006	19.72889313	4.77551404
Ti	29.42749797	30.13132412	4.84981221
Ti	18.00143529	19.69976760	4.80903584
Ti	17.92758511	30.14327504	4.69739702
Ti	12.35984234	14.42501358	4.71110802
Ti	12.27312897	25.11604968	4.70063275
Ti	27.48998933	14.45786499	4.72511743
Ti	27.57109177	24.98182493	4.86953761
Ti	16.08757231	14.50171240	4.65605342
Ti	16.05746552	24.91794534	4.73965569
Ti	19.83415331	14.43357781	4.65689608
Ti	19.94204768	24.89959928	4.80625822
Ti	12.34060035	11.44645061	5.55255970
Ti	12.23511419	22.11014841	5.52084405
Ti	27.51328475	11.44130117	5.47832544
Ti	27.46761938	22.10566667	5.50631003
Ti	16.10125060	11.61203855	5.45766447
Ti	16.02954024	22.03032223	5.52210461
Ti	19.82676195	11.55443627	5.43037699
Ti	19.94687985	22.00038197	5.51662537
Ti	10.33817626	16.71489971	5.48587170
Ti	10.34828738	27.38460104	5.53990803
Ti	25.60262596	16.86566469	5.51239079
Ti	25.68484479	27.31205477	5.52371865
Ti	14.16518657	16.75252787	5.79431890
Ti	14.29296263	27.29109847	5.56713323
Ti	29.46062004	16.73934804	5.48952232
Ti	29.56452812	27.23530240	5.59738567
Ti	17.96490959	16.82274002	5.55791465
Ti	17.92962490	27.21228304	5.56623890
O	21.78082683	17.72389570	3.95937537
O	21.88092256	28.26434893	3.91360559
O	8.52811634	12.55558425	3.86384747
O	8.51115185	23.08033520	3.96497101
O	23.85499053	12.63049259	3.93607658
O	23.65695176	23.17236753	3.96297261
O	8.47885977	20.15039205	4.82135913
O	8.58287403	30.55096469	4.93814184
O	23.68638616	20.10150670	4.65128030
O	23.75863472	30.58440200	4.75391656
O	21.69782931	14.90779850	4.72824765
O	21.88572388	25.37454438	4.90744291
O	21.87532068	11.06103581	5.66060149
O	21.89600066	21.54762925	5.66757419
O	8.42422360	16.15370113	5.92738611
O	8.52289814	26.79378707	5.87638060
O	23.66838908	16.40750378	5.74701125
O	23.70573709	26.78992501	5.71040985
O	8.46671123	13.25453171	6.23396479
O	8.46831313	23.80647486	6.28969372
O	23.57084817	13.49753877	6.26905391
O	23.75396836	23.82703865	6.44240356
O	21.80002662	18.50423179	6.30895643
O	21.69629296	29.01073790	6.29009826
O	10.53784897	17.81903483	3.96602457
O	10.18783721	28.31962180	3.97528077
O	25.75427119	17.94312492	3.93918188
O	25.63202007	28.34367349	3.94748751
O	14.24558331	17.82154898	3.98382526
O	14.16376765	28.33257059	3.89248372
O	29.73505565	17.85069839	3.92659328
O	29.56662284	28.34413319	3.95107954
O	17.89766431	17.93137489	3.99163831
O	18.03729225	28.25524902	3.99153001
O	12.35854771	12.54599585	3.92229038
O	12.29783982	23.07898917	3.98421954
O	27.71014956	12.54088186	3.94323899
O	27.66448248	23.07807334	3.97266341
O	15.96719885	12.60332052	3.95909399
O	16.13258491	23.07704565	3.92577067
O	19.84490256	12.57412238	3.86090475
O	19.93494581	22.88719982	3.90136168
O	12.11862556	20.22137665	4.79673965
O	12.40332631	30.67532898	4.76241753
O	27.50410276	20.17870468	4.85146096
O	27.53629200	30.58986728	4.85786109
O	15.99940121	20.09797592	4.74744478
O	16.10832679	30.69812452	4.58835297
O	19.88815555	20.10254867	4.93757236
O	19.90108018	30.45214209	4.93795506
O	10.38751368	14.81875223	4.75693888
O	10.38175411	25.54693996	4.71284682
O	25.66133677	15.01889871	4.69869930
O	25.73236162	25.47728821	4.75475681
O	14.27207555	14.95563699	4.87568978
O	14.14498637	25.56335606	4.66906423
O	29.45468895	14.88016391	4.75541505
O	29.43789448	25.43780037	4.65468927
O	18.01749853	15.03423164	4.69258559
O	17.99868972	25.27283707	4.79783676
O	10.38760074	10.95509987	5.82362309
O	10.39328781	21.53886738	6.09534039
O	25.66594254	11.10073182	5.99066858
O	25.65797292	21.50640448	5.80643889
O	14.23594037	10.90002366	5.80450428
O	14.10155141	21.52163002	5.76246275
O	29.43808406	11.02983261	5.86849602
O	29.49131818	21.54551286	5.76054807
O	17.94166015	11.06027989	5.75109946
O	17.89498480	21.63429555	5.63726348
O	12.24638831	16.34678898	5.59782938
O	12.33049543	26.78712556	5.80742730
O	27.53364948	16.35058176	5.68428328
O	27.58130404	26.93407963	5.72024679
O	16.09588391	16.39525739	5.71839294
O	16.12439230	26.65217772	5.82813889
O	19.81444970	16.31001057	5.92429400
O	19.87688663	26.66857269	5.69304710
O	12.30005884	13.24208033	6.31593221
O	12.31639114	23.92055282	6.29938003
O	27.60584023	13.15337300	6.44896194
O	27.51453572	23.80469009	6.42565388
O	16.28194675	13.26628094	6.28271142
O	15.86361462	23.70133640	6.35913453
O	19.65614278	13.25749202	6.22169385
O	19.91472098	23.84699366	6.37696694
O	10.24184690	18.47826901	6.39587548
O	10.65246758	29.07762542	6.35916122
O	25.52159681	18.75289807	6.34893487
O	25.56876371	29.08314458	6.35257707
O	14.09366036	18.63455419	6.41179357
O	14.38637259	29.02648410	6.27352349
O	29.42095928	18.47493826	6.34792077
O	29.38007710	28.97973579	6.36105032
O	18.00968775	18.55845784	6.45187289
O	17.97926494	29.01073626	6.41265736
H	13.87923482	13.83191906	8.04724548
H	14.53373501	14.93535556	11.38579864
H	13.60683149	18.31478100	8.86386997
O	14.12006821	16.05279947	7.55322778
O	13.96225714	14.30646143	8.88063030
C	13.93814486	15.61518157	8.71950516
C	13.97729951	16.48438069	9.93545520
C	14.28496089	15.96116447	11.20272073
C	13.81036873	17.87076682	9.81732942
N	13.28002906	19.43144365	15.75008892
N	15.89096146	22.40497226	16.85902598
N	15.39151026	21.00150209	14.36812916
N	13.68610345	20.99718646	18.31949586
C	20.20946730	24.14351947	13.54402337
C	16.47591220	23.46437131	22.79815578
C	8.52915377	19.09740594	19.38197547
C	17.88992289	23.74345913	13.95404359
C	15.42041248	23.40715097	20.56884294
C	10.70084199	18.76090187	18.45376862
C	18.62646797	25.68016926	12.65394310
C	15.21735775	25.41448721	21.99679044
C	9.63928517	17.02732501	19.77922975
C	14.15279013	19.07961824	13.43531264
C	16.90751125	22.93746255	14.68066136
C	15.21242585	22.59230202	19.30984707
C	11.86784917	19.41832562	17.80196246
C	15.11904894	20.14764382	13.39395067
C	16.24762140	21.93993717	13.94451774
C	14.15734390	21.66688428	19.41094990
C	12.65369415	20.18923387	18.71257113
C	15.89460292	20.52476974	12.23690816
C	16.51264918	21.71129639	12.55626716
C	13.39705744	21.21908803	20.57849044
C	12.40626868	20.32214352	20.09190216
C	13.23901438	18.82498121	14.49332200
C	16.73995367	23.13044250	16.07824446
C	15.91693305	23.01707402	18.14808253
C	12.11143429	19.09908745	16.42107241
C	12.10660409	17.98176757	14.42036108
C	17.29191696	24.24032734	16.83570757
C	16.83871770	24.11086188	18.10303577
C	11.35003404	18.21003084	15.58635579
H	11.84285640	17.28151912	13.63213859
H	18.02499792	25.03049420	16.50549045
H	17.15585429	24.78953112	18.87612092
H	10.34240513	17.81812843	15.75536263
H	15.84620497	19.98741281	11.34892768
H	17.27128978	22.30172703	12.07218231
H	13.58977139	21.48758395	21.64550092
H	11.56847413	19.82995327	20.61801311
H	18.40080268	26.41333640	11.89112137
H	14.89817020	26.47682646	22.16629363
H	9.72889783	16.08585634	20.29111120
H	21.29388553	23.83307108	13.62710846
H	17.07520653	22.94821994	23.57624817
H	7.57030739	19.63418686	19.46547037
H	14.96870814	21.03831223	15.31487782
H	14.14213690	20.94419643	17.40444704
C	21.14230493	26.07329972	12.19848025
H	21.71458812	26.39482202	13.03587854
H	20.76877943	26.96667986	11.70524526
H	21.79738131	25.46890043	11.50768219
C	19.53700099	22.07127889	14.83743499
H	19.16456497	21.20068502	14.29358212
H	19.10362254	22.00804719	15.83559770
H	20.60465645	21.94971450	14.98820293
C	16.15648103	25.44638067	13.19952153
H	16.00053868	26.41381186	12.64934182
H	15.86737793	25.64579291	14.23690233
H	15.48952978	24.64651721	12.91458701
C	11.98101503	16.57145333	18.87619794
H	11.78249767	15.52734156	19.13753360
H	12.79096410	16.87002840	19.51084382
H	12.41156195	16.54886871	17.89088713
C	9.34429507	20.81428084	17.76508145
H	8.29070917	21.09031252	17.83396042
H	9.64214286	20.74037089	16.73249896
H	9.93943868	21.63221803	18.16030830
C	7.45420459	17.43761813	20.92301750
H	7.84222497	16.71235731	21.71424228
H	6.68339600	16.85635806	20.41124270
H	6.98561713	18.27065386	21.48615940
C	14.27105844	25.45055151	19.66381856
H	14.80618744	26.25498009	19.19030768
H	13.39689281	25.94239842	19.98040240
H	14.01110389	24.72431340	18.92646231
C	16.82772760	21.37830445	21.37584370
H	16.79769011	21.11019239	20.35491349
H	16.31323230	20.61700195	22.00727212
H	17.80606235	21.39612942	21.84814691
C	16.37411924	25.61333944	24.16861905
H	16.11753756	26.69939631	24.04229955
H	17.43844446	25.50517346	24.30498567
H	15.88189572	25.27565832	25.12965205
C	19.97675349	25.31721249	12.82588019
C	19.24967596	23.33967493	14.10333235
C	17.58358655	24.90400736	13.18341268
C	14.95770845	24.76955199	20.79907817
C	16.19523468	22.72693086	21.61170021
C	15.94786012	24.78825366	23.00742915
C	10.78008295	17.47303575	19.06464160
C	9.52032594	19.50869888	18.52803479
C	8.55925751	17.85978351	20.05141314
H	14.49084123	16.37057778	13.35666483
H	13.61277522	19.81763328	10.80248391
C	14.11052114	18.19043832	12.21983226
C	14.30766614	16.78671282	12.34387551
C	13.87125090	18.76216174	10.92544262

Ti O H C N 0
6-31G*
****

