%chk=f00019934.chk
%mem=24GB
%nproc=12
#p b3lyp/6-31G*

title

0 1
Ti	2.81187400	0.19704000	1.10336000
Ti	0.90594400	5.44057000	1.10336000
Ti	4.71781400	5.44057000	1.10336000
Ti	0.90594400	2.47241000	1.99114000
Ti	4.71781400	2.47241000	1.99114000
Ti	2.81187400	7.71594000	1.99115000
O	2.81187400	8.81302000	0.37332000
O	0.90594400	3.56949000	0.37332000
O	4.71781400	3.56949000	0.37332000
O	0.90594400	0.60134000	1.26110000
O	4.71781400	0.60134000	1.26110000
O	2.81187400	5.84486000	1.26111000
O	2.81187400	2.06812000	1.83340000
O	0.90594400	7.31164000	1.83340000
O	4.71781400	7.31164000	1.83340000
O	0.90594400	4.34349000	2.72118000
O	4.71781400	4.34349000	2.72118000
O	2.81187400	9.58701000	2.72118000
Ti	6.62374588	0.19704000	1.10336000
Ti	21.87123776	0.19704000	1.10336000
Ti	8.52968588	5.44057000	1.10336000
Ti	23.77717776	5.44057000	1.10336000
Ti	8.52968588	2.47241000	1.99114000
Ti	23.77717776	2.47241000	1.99114000
Ti	6.62374588	7.71594000	1.99115000
Ti	21.87123776	7.71594000	1.99115000
Ti	10.43561588	0.19704000	1.10336000
Ti	25.68310776	0.19704000	1.10336000
Ti	14.24749588	0.19704000	1.10336000
Ti	29.49498776	0.19704000	1.10336000
Ti	18.05936588	0.19704000	1.10336000
Ti	12.34155588	5.44057000	1.10336000
Ti	27.58904776	5.44057000	1.10336000
Ti	16.15343588	5.44057000	1.10336000
Ti	19.96530588	5.44057000	1.10336000
Ti	12.34155588	2.47241000	1.99114000
Ti	27.58904776	2.47241000	1.99114000
Ti	16.15343588	2.47241000	1.99114000
Ti	19.96530588	2.47241000	1.99114000
Ti	10.43561588	7.71594000	1.99115000
Ti	25.68310776	7.71594000	1.99115000
Ti	14.24749588	7.71594000	1.99115000
Ti	29.49498776	7.71594000	1.99115000
Ti	18.05936588	7.71594000	1.99115000
O	6.62374588	8.81302000	0.37332000
O	21.87123776	8.81302000	0.37332000
O	8.52968588	3.56949000	0.37332000
O	23.77717776	3.56949000	0.37332000
O	8.52968588	0.60134000	1.26110000
O	23.77717776	0.60134000	1.26110000
O	6.62374588	5.84486000	1.26111000
O	21.87123776	5.84486000	1.26111000
O	6.62374588	2.06812000	1.83340000
O	21.87123776	2.06812000	1.83340000
O	8.52968588	7.31164000	1.83340000
O	23.77717776	7.31164000	1.83340000
O	8.52968588	4.34349000	2.72118000
O	23.77717776	4.34349000	2.72118000
O	6.62374588	9.58701000	2.72118000
O	21.87123776	9.58701000	2.72118000
O	10.43561588	8.81302000	0.37332000
O	25.68310776	8.81302000	0.37332000
O	14.24749588	8.81302000	0.37332000
O	29.49498776	8.81302000	0.37332000
O	18.05936588	8.81302000	0.37332000
O	12.34155588	3.56949000	0.37332000
O	27.58904776	3.56949000	0.37332000
O	16.15343588	3.56949000	0.37332000
O	19.96530588	3.56949000	0.37332000
O	12.34155588	0.60134000	1.26110000
O	27.58904776	0.60134000	1.26110000
O	16.15343588	0.60134000	1.26110000
O	19.96530588	0.60134000	1.26110000
O	10.43561588	5.84486000	1.26111000
O	25.68310776	5.84486000	1.26111000
O	14.24749588	5.84486000	1.26111000
O	29.49498776	5.84486000	1.26111000
O	18.05936588	5.84486000	1.26111000
O	10.43561588	2.06812000	1.83340000
O	25.68310776	2.06812000	1.83340000
O	14.24749588	2.06812000	1.83340000
O	29.49498776	2.06812000	1.83340000
O	18.05936588	2.06812000	1.83340000
O	12.34155588	7.31164000	1.83340000
O	27.58904776	7.31164000	1.83340000
O	16.15343588	7.31164000	1.83340000
O	19.96530588	7.31164000	1.83340000
O	12.34155588	4.34349000	2.72118000
O	27.58904776	4.34349000	2.72118000
O	16.15343588	4.34349000	2.72118000
O	19.96530588	4.34349000	2.72118000
O	10.43561588	9.58701000	2.72118000
O	25.68310776	9.58701000	2.72118000
O	14.24749588	9.58701000	2.72118000
O	29.49498776	9.58701000	2.72118000
O	18.05936588	9.58701000	2.72118000
Ti	2.81187400	10.68408607	1.10336000
Ti	2.81187400	21.17113214	1.10336000
Ti	0.90594400	15.92761607	1.10336000
Ti	0.90594400	26.41466214	1.10336000
Ti	4.71781400	15.92761607	1.10336000
Ti	4.71781400	26.41466214	1.10336000
Ti	0.90594400	12.95945607	1.99114000
Ti	0.90594400	23.44650214	1.99114000
Ti	4.71781400	12.95945607	1.99114000
Ti	4.71781400	23.44650214	1.99114000
Ti	2.81187400	18.20298607	1.99115000
Ti	2.81187400	28.69003214	1.99115000
O	2.81187400	19.30006607	0.37332000
O	2.81187400	29.78711214	0.37332000
O	0.90594400	14.05653607	0.37332000
O	0.90594400	24.54358214	0.37332000
O	4.71781400	14.05653607	0.37332000
O	4.71781400	24.54358214	0.37332000
O	0.90594400	11.08838607	1.26110000
O	0.90594400	21.57543214	1.26110000
O	4.71781400	11.08838607	1.26110000
O	4.71781400	21.57543214	1.26110000
O	2.81187400	16.33190607	1.26111000
O	2.81187400	26.81895214	1.26111000
O	2.81187400	12.55516607	1.83340000
O	2.81187400	23.04221214	1.83340000
O	0.90594400	17.79868607	1.83340000
O	0.90594400	28.28573214	1.83340000
O	4.71781400	17.79868607	1.83340000
O	4.71781400	28.28573214	1.83340000
O	0.90594400	14.83053607	2.72118000
O	0.90594400	25.31758214	2.72118000
O	4.71781400	14.83053607	2.72118000
O	4.71781400	25.31758214	2.72118000
O	2.81187400	20.07405607	2.72118000
O	2.81187400	30.56110214	2.72118000
Ti	6.62374588	10.68408607	1.10336000
Ti	6.62374588	21.17113214	1.10336000
Ti	21.87123776	10.68408607	1.10336000
Ti	21.87123776	21.17113214	1.10336000
Ti	8.52968588	15.92761607	1.10336000
Ti	8.52968588	26.41466214	1.10336000
Ti	23.77717776	15.92761607	1.10336000
Ti	23.77717776	26.41466214	1.10336000
Ti	8.52968588	12.95945607	1.99114000
Ti	8.52968588	23.44650214	1.99114000
Ti	23.77717776	12.95945607	1.99114000
Ti	23.77717776	23.44650214	1.99114000
Ti	6.62374588	18.20298607	1.99115000
Ti	6.62374588	28.69003214	1.99115000
Ti	21.87123776	18.20298607	1.99115000
Ti	21.87123776	28.69003214	1.99115000
Ti	10.43561588	10.68408607	1.10336000
Ti	10.43561588	21.17113214	1.10336000
Ti	25.68310776	10.68408607	1.10336000
Ti	25.68310776	21.17113214	1.10336000
Ti	14.24749588	10.68408607	1.10336000
Ti	14.24749588	21.17113214	1.10336000
Ti	29.49498776	10.68408607	1.10336000
Ti	29.49498776	21.17113214	1.10336000
Ti	18.05936588	10.68408607	1.10336000
Ti	18.05936588	21.17113214	1.10336000
Ti	12.34155588	15.92761607	1.10336000
Ti	12.34155588	26.41466214	1.10336000
Ti	27.58904776	15.92761607	1.10336000
Ti	27.58904776	26.41466214	1.10336000
Ti	16.15343588	15.92761607	1.10336000
Ti	16.15343588	26.41466214	1.10336000
Ti	19.96530588	15.92761607	1.10336000
Ti	19.96530588	26.41466214	1.10336000
Ti	12.34155588	12.95945607	1.99114000
Ti	12.34155588	23.44650214	1.99114000
Ti	27.58904776	12.95945607	1.99114000
Ti	27.58904776	23.44650214	1.99114000
Ti	16.15343588	12.95945607	1.99114000
Ti	16.15343588	23.44650214	1.99114000
Ti	19.96530588	12.95945607	1.99114000
Ti	19.96530588	23.44650214	1.99114000
Ti	10.43561588	18.20298607	1.99115000
Ti	10.43561588	28.69003214	1.99115000
Ti	25.68310776	18.20298607	1.99115000
Ti	25.68310776	28.69003214	1.99115000
Ti	14.24749588	18.20298607	1.99115000
Ti	14.24749588	28.69003214	1.99115000
Ti	29.49498776	18.20298607	1.99115000
Ti	29.49498776	28.69003214	1.99115000
Ti	18.05936588	18.20298607	1.99115000
Ti	18.05936588	28.69003214	1.99115000
O	6.62374588	19.30006607	0.37332000
O	6.62374588	29.78711214	0.37332000
O	21.87123776	19.30006607	0.37332000
O	21.87123776	29.78711214	0.37332000
O	8.52968588	14.05653607	0.37332000
O	8.52968588	24.54358214	0.37332000
O	23.77717776	14.05653607	0.37332000
O	23.77717776	24.54358214	0.37332000
O	8.52968588	11.08838607	1.26110000
O	8.52968588	21.57543214	1.26110000
O	23.77717776	11.08838607	1.26110000
O	23.77717776	21.57543214	1.26110000
O	6.62374588	16.33190607	1.26111000
O	6.62374588	26.81895214	1.26111000
O	21.87123776	16.33190607	1.26111000
O	21.87123776	26.81895214	1.26111000
O	6.62374588	12.55516607	1.83340000
O	6.62374588	23.04221214	1.83340000
O	21.87123776	12.55516607	1.83340000
O	21.87123776	23.04221214	1.83340000
O	8.52968588	17.79868607	1.83340000
O	8.52968588	28.28573214	1.83340000
O	23.77717776	17.79868607	1.83340000
O	23.77717776	28.28573214	1.83340000
O	8.52968588	14.83053607	2.72118000
O	8.52968588	25.31758214	2.72118000
O	23.77717776	14.83053607	2.72118000
O	23.77717776	25.31758214	2.72118000
O	6.62374588	20.07405607	2.72118000
O	6.62374588	30.56110214	2.72118000
O	21.87123776	20.07405607	2.72118000
O	21.87123776	30.56110214	2.72118000
O	10.43561588	19.30006607	0.37332000
O	10.43561588	29.78711214	0.37332000
O	25.68310776	19.30006607	0.37332000
O	25.68310776	29.78711214	0.37332000
O	14.24749588	19.30006607	0.37332000
O	14.24749588	29.78711214	0.37332000
O	29.49498776	19.30006607	0.37332000
O	29.49498776	29.78711214	0.37332000
O	18.05936588	19.30006607	0.37332000
O	18.05936588	29.78711214	0.37332000
O	12.34155588	14.05653607	0.37332000
O	12.34155588	24.54358214	0.37332000
O	27.58904776	14.05653607	0.37332000
O	27.58904776	24.54358214	0.37332000
O	16.15343588	14.05653607	0.37332000
O	16.15343588	24.54358214	0.37332000
O	19.96530588	14.05653607	0.37332000
O	19.96530588	24.54358214	0.37332000
O	12.34155588	11.08838607	1.26110000
O	12.34155588	21.57543214	1.26110000
O	27.58904776	11.08838607	1.26110000
O	27.58904776	21.57543214	1.26110000
O	16.15343588	11.08838607	1.26110000
O	16.15343588	21.57543214	1.26110000
O	19.96530588	11.08838607	1.26110000
O	19.96530588	21.57543214	1.26110000
O	10.43561588	16.33190607	1.26111000
O	10.43561588	26.81895214	1.26111000
O	25.68310776	16.33190607	1.26111000
O	25.68310776	26.81895214	1.26111000
O	14.24749588	16.33190607	1.26111000
O	14.24749588	26.81895214	1.26111000
O	29.49498776	16.33190607	1.26111000
O	29.49498776	26.81895214	1.26111000
O	18.05936588	16.33190607	1.26111000
O	18.05936588	26.81895214	1.26111000
O	10.43561588	12.55516607	1.83340000
O	10.43561588	23.04221214	1.83340000
O	25.68310776	12.55516607	1.83340000
O	25.68310776	23.04221214	1.83340000
O	14.24749588	12.55516607	1.83340000
O	14.24749588	23.04221214	1.83340000
O	29.49498776	12.55516607	1.83340000
O	29.49498776	23.04221214	1.83340000
O	18.05936588	12.55516607	1.83340000
O	18.05936588	23.04221214	1.83340000
O	12.34155588	17.79868607	1.83340000
O	12.34155588	28.28573214	1.83340000
O	27.58904776	17.79868607	1.83340000
O	27.58904776	28.28573214	1.83340000
O	16.15343588	17.79868607	1.83340000
O	16.15343588	28.28573214	1.83340000
O	19.96530588	17.79868607	1.83340000
O	19.96530588	28.28573214	1.83340000
O	12.34155588	14.83053607	2.72118000
O	12.34155588	25.31758214	2.72118000
O	27.58904776	14.83053607	2.72118000
O	27.58904776	25.31758214	2.72118000
O	16.15343588	14.83053607	2.72118000
O	16.15343588	25.31758214	2.72118000
O	19.96530588	14.83053607	2.72118000
O	19.96530588	25.31758214	2.72118000
O	10.43561588	20.07405607	2.72118000
O	10.43561588	30.56110214	2.72118000
O	25.68310776	20.07405607	2.72118000
O	25.68310776	30.56110214	2.72118000
O	14.24749588	20.07405607	2.72118000
O	14.24749588	30.56110214	2.72118000
O	29.49498776	20.07405607	2.72118000
O	29.49498776	30.56110214	2.72118000
O	18.05936588	20.07405607	2.72118000
O	18.05936588	30.56110214	2.72118000
Ti	6.50280643	9.34388689	4.83087130
Ti	6.61804174	6.45644159	5.56411455
Ti	2.68657281	9.26708874	4.71088148
Ti	1.00337676	4.02032338	4.79758052
Ti	4.72312598	4.05098586	4.83585648
Ti	0.94131697	1.03860743	5.41310705
Ti	4.72219538	1.11594667	5.54145268
Ti	2.77650351	6.36622879	5.52281176
O	6.69817460	7.44431562	3.94937248
O	6.55999204	4.49246310	4.73514606
O	6.68353111	0.70076792	5.69997797
O	6.52267535	8.13247812	6.39992687
O	2.72666444	7.44762860	3.91210355
O	0.91046216	2.18955745	3.98640483
O	4.69388061	2.12798509	3.94848095
O	0.80475285	9.63370033	4.76903675
O	4.59805629	9.71777354	4.76512209
O	2.85369506	4.45276099	4.81402357
O	2.81882930	0.60776964	5.89743842
O	0.94025528	5.75994147	5.91890008
O	4.61746263	5.84553119	5.77871642
O	0.86303560	2.85986863	6.31956414
O	4.77668770	2.90090591	6.31066548
O	2.93253274	8.15396159	6.36046516
Ti	21.87910281	9.15448865	4.72213361
Ti	8.49234719	4.11324380	4.74181793
Ti	23.81016237	3.92992555	4.69822144
Ti	8.63307923	1.18672296	5.47083579
Ti	23.72142623	1.01120102	5.47186881
Ti	21.97896824	6.22758598	5.54436338
Ti	10.44847785	9.28317830	4.84363298
Ti	25.72735299	9.13540560	4.71666369
Ti	14.33140349	9.32355126	4.83902125
Ti	29.40865433	9.26479356	4.70347333
Ti	18.01890077	9.17298006	4.88251625
Ti	12.33402795	3.98508752	4.78888535
Ti	27.72905546	3.96746802	4.83053076
Ti	16.14477566	4.00239767	4.81000723
Ti	19.93105501	3.97961396	4.69694975
Ti	12.42204788	1.06475537	5.52124276
Ti	27.61048601	1.01068017	5.43000026
Ti	16.06541692	1.07762941	5.44190166
Ti	19.93733165	1.10415934	5.61690912
Ti	10.44772108	6.30278117	5.40593017
Ti	25.75271596	6.24678994	5.51687677
Ti	14.28603538	6.37159814	5.52522559
Ti	29.64524094	6.32509377	5.46965047
Ti	18.09333683	6.22673603	5.50631649
O	21.96773647	7.26772532	3.94530630
O	8.64682747	2.23528137	3.96781644
O	23.80138021	2.10018122	3.87901261
O	8.44429286	9.65067389	4.88947207
O	23.78351805	9.56365936	4.76055759
O	21.93221482	4.46803117	4.62597354
O	21.83672295	0.51782151	5.97599602
O	8.51362333	5.84901222	5.80518081
O	23.89251280	5.63650625	5.96081827
O	8.29311306	2.95656759	6.24459720
O	23.58564506	2.90016153	6.34856875
O	22.15572248	7.95790837	6.36356581
O	10.51775992	7.38253604	3.95609979
O	25.65386372	7.19870594	3.92845007
O	14.23475219	7.41743313	3.97932368
O	29.46771364	7.41336880	3.91942509
O	17.99028714	7.40379802	3.99922361
O	12.38026652	2.09409888	3.96369003
O	27.66430084	2.14842169	3.94679943
O	15.99272700	2.13945777	3.85524001
O	20.03466723	2.08336808	3.87655871
O	12.33196267	9.68236400	4.87200247
O	27.55519460	9.67878797	4.76799819
O	16.23392171	9.79376362	4.59427370
O	20.01249767	9.47956663	4.84138693
O	10.45193535	4.49027041	4.56053264
O	25.77410278	4.38801417	4.81635158
O	14.19348457	4.48702554	4.76206554
O	29.60957945	4.53626673	4.61945263
O	18.10294302	4.42385585	4.64992978
O	10.47343335	0.66232554	5.91908190
O	25.65802225	0.59612612	5.72345602
O	14.30095979	1.02841469	6.04203593
O	29.53557002	0.48830810	5.78837088
O	17.96303789	0.51112819	5.72972839
O	12.32147080	5.77039103	5.78166499
O	27.74132971	5.67970434	5.71527569
O	16.15581732	5.68824865	5.82215652
O	20.00102735	5.73559942	5.67313410
O	12.00848165	2.71595169	6.34802232
O	27.84172981	2.74464548	6.40755040
O	16.31751683	2.83970674	6.28808004
O	19.86789514	2.86073930	6.28338587
O	10.27327579	8.05355541	6.35329939
O	25.94925141	7.98788410	6.36010040
O	14.33797158	8.16021304	6.38880626
O	29.41812275	7.96315562	6.35107221
O	18.08056439	7.99451043	6.37584424
Ti	6.63275997	19.54933656	4.67722035
Ti	6.64009963	30.24207068	4.70381870
Ti	6.56944014	16.70503118	5.50772585
Ti	6.53859894	27.32120766	5.49978943
Ti	2.98001150	19.77313113	4.74332565
Ti	2.85381275	30.14720051	4.79409232
Ti	0.88866140	14.32266555	4.65614658
Ti	0.84210272	24.94938515	4.62006870
Ti	4.49447442	14.53787220	4.91840773
Ti	4.66835929	24.99223496	4.74615141
Ti	0.85459171	11.51123115	5.51902534
Ti	1.01930745	22.03711244	5.50741806
Ti	4.58922815	11.61038110	5.47093763
Ti	4.82787010	22.17216760	5.60641956
Ti	2.70164511	16.86667663	5.64403712
Ti	2.75209829	27.22076911	5.52465775
O	6.66471723	17.66603544	3.96459742
O	6.55490838	28.32970382	3.88828845
O	6.50368444	14.77741982	4.71805133
O	6.53465002	25.37628919	4.75260127
O	6.43384458	11.07619997	5.85507259
O	6.73643061	22.08851665	6.09503086
O	6.36827111	18.52049715	6.42689061
O	6.68298580	29.06504558	6.32037494
O	2.92161345	17.82951448	3.95474929
O	2.95689353	28.36161648	3.97542045
O	0.92963763	12.57546770	3.93941328
O	0.86013358	23.06120000	3.89963949
O	4.59446862	12.66382686	3.95472493
O	4.82360228	23.07888983	3.96552682
O	0.99780300	20.12432295	4.88780915
O	0.96167659	30.62524542	4.73624193
O	4.85370939	20.33818829	4.81021062
O	4.81139665	30.71916144	4.78073762
O	2.73276547	15.10504805	4.70427445
O	2.70058310	25.33260431	4.72264149
O	2.67646993	11.02813967	5.76788629
O	2.93785975	21.63376878	5.78606145
O	0.88145727	16.72893382	6.23581998
O	0.91332613	26.69831138	5.79434373
O	4.73507500	16.30905832	6.03746231
O	4.64445422	26.73684480	5.88636076
O	0.94285102	13.28062466	6.26517369
O	0.85495053	23.78549467	6.35664824
O	4.43622900	13.32884470	6.45920178
O	4.42822480	23.85915678	6.40678055
O	3.02587570	18.63781997	6.23951700
O	2.90576578	28.99755701	6.31426214
Ti	21.83179219	19.60100935	4.67904133
Ti	21.74488668	30.23560114	4.77747385
Ti	8.47689672	14.38938115	4.80631972
Ti	8.41377448	25.07880322	4.78352335
Ti	23.85882102	14.40965184	4.74522246
Ti	23.74646345	25.07000643	4.67154634
Ti	8.46498028	11.53181246	5.60802562
Ti	8.58015321	22.15483093	5.53142795
Ti	23.77834218	11.45453338	5.43893030
Ti	23.73542345	22.10306652	5.47522062
Ti	21.92650806	16.64336858	5.43258280
Ti	21.79949080	27.34201079	5.43752323
Ti	10.37933215	19.70694961	4.69138968
Ti	10.44474184	30.26969120	4.83738596
Ti	25.77985382	19.82178460	4.75706314
Ti	25.62854728	30.28062442	4.71916923
Ti	14.21724660	19.63726188	4.85383918
Ti	14.17454007	30.04251993	4.66940201
Ti	29.54676740	19.67895038	4.70113636
Ti	29.52466213	30.13446519	4.81381109
Ti	18.01936951	19.74172694	4.83307947
Ti	17.83311768	30.14401207	4.68772013
Ti	12.28362852	14.42252867	4.73240206
Ti	12.25985218	24.87609247	4.70420204
Ti	27.67794982	14.45286521	4.76103705
Ti	27.59389082	25.05751311	4.75172802
Ti	16.19915296	14.48652747	4.68695680
Ti	16.08975895	24.87235985	4.77583907
Ti	19.95963521	14.39450355	4.84867660
Ti	19.92703605	24.94191288	4.66750222
Ti	12.29924316	11.50214507	5.55641263
Ti	12.38344136	21.94130043	5.41103664
Ti	27.59697719	11.54363770	5.48806658
Ti	27.70870999	22.10034427	5.51220845
Ti	16.26380334	11.54788970	5.44442771
Ti	16.09204890	21.97828740	5.54670742
Ti	19.91294499	11.45210134	5.39625536
Ti	19.89853667	22.03826110	5.54868013
Ti	10.30654036	16.77388390	5.48687756
Ti	10.32596240	27.33857284	5.53767184
Ti	25.59573676	16.76233083	5.34589099
Ti	25.80375561	27.31970263	5.49974478
Ti	14.22306444	16.77783962	5.72451731
Ti	14.11617010	27.10449281	5.48975531
Ti	29.44436762	16.86582422	5.60977481
Ti	29.50489739	27.23383004	5.51758991
Ti	18.10521205	16.73042614	5.57942071
Ti	17.90870101	27.22622337	5.55500862
O	21.79198957	17.85128242	3.92427254
O	22.01682929	28.35578438	3.89176424
O	8.50379491	12.54061564	3.99972080
O	8.32403058	23.24212302	4.00319464
O	23.81128618	12.50281132	3.89339640
O	23.80457288	23.00321915	3.88111059
O	8.34238617	20.23318558	4.91247198
O	8.64035461	30.80315606	4.65766655
O	23.79563967	20.13877058	4.90729029
O	23.68982562	30.63223717	4.96489212
O	21.85585619	14.86567998	4.66642892
O	21.88681798	25.36670427	4.77598924
O	21.87162208	11.06417365	5.76206531
O	21.87449649	21.62581436	5.65025693
O	8.43638377	16.15613486	5.80234105
O	8.40349734	26.80393094	5.75261343
O	23.77668543	16.10544009	5.73399401
O	23.77870052	26.85861265	5.70324142
O	8.40888715	13.30755857	6.50150497
O	8.86993952	23.92590970	6.38796563
O	23.82940242	13.22861723	6.29417347
O	23.69824739	23.80746704	6.35059052
O	21.80142961	18.39870708	6.34946696
O	21.59046756	29.09746334	6.27958624
O	10.14553042	17.75153248	3.87242770
O	10.46861185	28.45208990	3.96911835
O	25.63854529	17.81543718	3.87136331
O	25.61108368	28.31679536	3.92401959
O	14.25272667	17.83205453	3.96345227
O	14.13112269	28.19013337	3.83772730
O	29.58641821	17.82224436	3.96660286
O	29.47906277	28.25837870	3.91306649
O	18.21755924	17.76027699	3.95825047
O	17.93472602	28.29374068	3.91898498
O	12.33761865	12.46732225	3.90306851
O	12.19424928	23.06779785	3.91518283
O	27.64636141	12.59560287	3.92283491
O	27.71179628	23.17154137	3.92720853
O	16.36807414	12.61608594	3.91219305
O	16.06536480	23.02290408	3.94983801
O	20.07673688	12.59796172	3.95369589
O	19.75507100	23.06741121	3.94918754
O	12.35320264	20.08183642	4.67553268
O	12.39348503	30.65446353	4.88845977
O	27.66810321	20.22699596	4.64977323
O	27.58148397	30.54003798	4.69483030
O	16.13810551	19.98868962	4.79483864
O	15.97785383	30.62621166	4.82492161
O	19.94285796	20.08548035	5.03816263
O	19.89061405	30.70146261	4.70286665
O	10.42383560	14.78553584	4.83765264
O	10.38865945	25.52134769	4.70810996
O	25.75478249	14.82030859	4.67774352
O	25.69610589	25.42663386	4.79980993
O	14.21276206	14.87111748	4.81868931
O	14.14509679	25.22437391	4.72335006
O	29.57374220	14.97068075	4.97495539
O	29.54787987	25.36163571	4.73227980
O	18.11494565	14.88985229	4.91097037
O	18.02026135	25.31710133	4.83806730
O	10.38598731	11.07904197	5.93089041
O	10.50768376	21.60724867	5.64710862
O	25.75468076	11.03323413	5.71753872
O	25.73440866	21.61961814	5.86448695
O	14.24624382	11.15572931	5.78611605
O	14.22718740	21.45924392	5.72083619
O	29.43253789	11.08827749	5.67978643
O	29.63562062	21.64548302	5.80216734
O	18.06692131	11.02626344	5.77801563
O	17.98258984	21.63740772	5.77123208
O	12.24362115	16.43035838	5.58203724
O	12.28083875	26.84329415	5.82794677
O	27.51593180	16.26490240	5.70586847
O	27.70624938	26.71409096	5.95138360
O	16.20428491	16.35040900	5.55953571
O	16.04122662	26.70173994	5.72718265
O	20.02048168	16.15077362	5.92503667
O	19.94537462	26.73012153	5.73462089
O	12.47068784	13.26112607	6.36657176
O	12.41787125	23.66813865	6.38526077
O	27.58836265	13.41827113	6.33105636
O	27.67916523	23.79588346	6.46045773
O	16.32205210	13.36800248	6.27963689
O	16.01320793	23.78792789	6.37142564
O	20.00176975	13.16148154	6.41641321
O	20.00862722	23.78749838	6.37928481
O	10.31974827	18.55257439	6.19784245
O	10.30611472	29.11496699	6.37894142
O	25.86103322	18.55626601	6.27341390
O	25.75487209	29.05041283	6.34460657
O	14.11547503	18.60902737	6.40334438
O	14.26920393	28.91972708	6.30970611
O	29.18213320	18.63268108	6.32729606
O	29.57144171	28.97827095	6.46231346
O	18.11410819	18.57889681	6.41054992
O	18.03212795	29.02466471	6.32820742
H	12.72975620	14.54216522	7.62256609
H	12.49992524	15.31371761	11.10590901
H	15.62976067	17.81547478	9.12681343
O	14.39766022	16.14829534	7.58532016
O	12.78377913	14.95173229	8.53603615
C	13.76471254	15.79064872	8.74443522
C	14.07311981	16.39199967	10.02972465
C	13.29607187	16.06588077	11.17137281
C	14.98199572	17.48874006	10.04917575
N	12.93088900	20.04968733	15.31337096
N	15.88464889	22.05098979	17.26488321
N	15.84844077	20.27666979	14.85901237
N	13.05342392	21.72427276	17.79137241
C	21.46112249	20.45450827	16.29324500
C	15.00701782	24.75676681	22.53334631
C	7.22145509	20.96483825	16.99612456
C	19.27582646	21.31866509	15.85223596
C	14.74772762	24.10338250	20.17988531
C	9.56984924	20.27260451	17.03585039
C	21.23402060	22.40978970	14.94172486
C	14.89234376	26.46591428	20.82213630
C	7.76062019	18.63817915	17.49783526
C	14.25812452	18.92982431	13.49537839
C	17.79172061	21.27469884	15.90180037
C	14.64146026	23.02114319	19.20855695
C	11.02170281	20.56617158	16.83200195
C	15.55543108	19.33075712	13.91767079
C	17.13880724	20.49830649	14.97994601
C	13.36770086	22.44016404	18.94271958
C	11.73690703	21.30698380	17.80118430
C	16.89262506	18.87058466	13.48456783
C	17.83939081	19.57926247	14.11788637
C	12.16349061	22.61065686	19.65230096
C	11.19492386	21.85844768	18.98078869
C	13.04183919	19.30596301	14.12962000
C	17.21366428	22.01548771	16.94401502
C	15.78874102	22.85939117	18.42386480
C	11.58434324	19.98862629	15.69916281
C	11.73974009	18.90980690	13.65824197
C	17.98253024	22.81575355	17.87603807
C	17.10618654	23.37477484	18.74254936
C	10.85879579	19.22998511	14.64449030
H	11.53948065	18.42395484	12.69535396
H	19.03149079	23.01014859	17.81089203
H	17.27242022	23.84243126	19.76142608
H	9.80427306	18.92678424	14.72514277
H	17.03256841	18.03116052	12.79011222
H	18.91344347	19.51111462	14.02655724
H	11.98530212	23.18039981	20.56469640
H	10.15287051	21.75771002	19.29416094
H	21.72350121	23.14547789	14.31433135
H	14.90596777	27.50146752	20.53169516
H	7.46298294	17.62882354	17.89172031
H	21.96427126	19.67097460	16.82585899
H	15.07321955	24.44827237	23.55081188
H	6.39767604	21.65061876	16.82035152
H	15.04327908	20.76878284	15.30525987
H	13.73507379	21.48530104	17.05570550
C	23.59830819	21.48334907	15.46068414
H	23.96996958	21.66741251	14.39856940
H	24.01473426	20.53325989	15.80653300
H	23.96515082	22.30278848	16.06355872
C	19.53717057	19.04661629	17.03222938
H	20.25527551	18.20153558	17.03530589
H	18.62934707	18.60822056	16.56284288
H	19.35757251	19.15319175	18.09359017
C	18.99916702	23.40025980	14.52526526
H	19.61788850	24.21840226	14.30935478
H	18.12671760	23.59993703	15.20300095
H	18.56660761	23.08279503	13.58414664
C	10.16226535	17.80099427	17.51249798
H	9.92002031	17.04479474	18.21838440
H	11.16625662	18.17138362	17.96594086
H	10.36592660	17.29992785	16.56547676
C	9.00635697	22.62608719	16.33384048
H	8.33490101	23.44207006	16.55642091
H	9.14349767	22.57028309	15.26876146
H	9.89513755	22.99825782	16.85290744
C	5.32871271	19.49371333	17.58723805
H	5.16510794	19.84587646	18.61821082
H	4.93439848	18.50532266	17.46227150
H	4.66981404	20.05361669	16.92044331
C	14.76230258	25.83957428	18.36118666
H	13.69096416	25.98213348	17.97965810
H	15.21281916	25.04889505	17.68489587
H	15.32407169	26.72702159	18.27107292
C	14.77654085	22.36985888	22.05722187
H	14.93276274	21.68478148	21.25014008
H	13.76263439	22.11775504	22.41573451
H	15.44572469	22.11327701	22.91817722
C	14.99232923	27.13347751	23.26462009
H	15.29984362	28.10180557	22.88021217
H	15.71748320	26.84851959	24.07959655
H	14.02749798	27.22830912	23.77411764
C	22.07531129	21.43376554	15.50076811
C	20.07726934	20.32296048	16.38469411
C	19.85492807	22.34782850	15.08466003
C	14.83539544	25.46172714	19.81977216
C	14.82759734	23.77549486	21.57054234
C	14.99965350	26.12481380	22.13059760
C	9.15386719	18.87994065	17.30427576
C	8.55452526	21.27167537	16.80001707
C	6.81143762	19.66729746	17.34954086
H	12.63509740	16.59740711	13.14324930
H	15.75512422	19.04668319	11.21195405
C	14.23754612	17.95824489	12.39756116
C	13.29467818	16.91250131	12.32390112
C	15.09204139	18.15722349	11.23412359

Ti O H C N 0
6-31G*
****

