%chk=f00012600.chk
%mem=24GB
%nproc=12
#p b3lyp/6-31G*

title

0 1
Ti	2.81187400	0.19704000	1.10336000
Ti	0.90594400	5.44057000	1.10336000
Ti	4.71781400	5.44057000	1.10336000
Ti	0.90594400	2.47241000	1.99114000
Ti	4.71781400	2.47241000	1.99114000
Ti	2.81187400	7.71594000	1.99115000
O	2.81187400	8.81302000	0.37332000
O	0.90594400	3.56949000	0.37332000
O	4.71781400	3.56949000	0.37332000
O	0.90594400	0.60134000	1.26110000
O	4.71781400	0.60134000	1.26110000
O	2.81187400	5.84486000	1.26111000
O	2.81187400	2.06812000	1.83340000
O	0.90594400	7.31164000	1.83340000
O	4.71781400	7.31164000	1.83340000
O	0.90594400	4.34349000	2.72118000
O	4.71781400	4.34349000	2.72118000
O	2.81187400	9.58701000	2.72118000
Ti	6.62374588	0.19704000	1.10336000
Ti	21.87123776	0.19704000	1.10336000
Ti	8.52968588	5.44057000	1.10336000
Ti	23.77717776	5.44057000	1.10336000
Ti	8.52968588	2.47241000	1.99114000
Ti	23.77717776	2.47241000	1.99114000
Ti	6.62374588	7.71594000	1.99115000
Ti	21.87123776	7.71594000	1.99115000
Ti	10.43561588	0.19704000	1.10336000
Ti	25.68310776	0.19704000	1.10336000
Ti	14.24749588	0.19704000	1.10336000
Ti	29.49498776	0.19704000	1.10336000
Ti	18.05936588	0.19704000	1.10336000
Ti	12.34155588	5.44057000	1.10336000
Ti	27.58904776	5.44057000	1.10336000
Ti	16.15343588	5.44057000	1.10336000
Ti	19.96530588	5.44057000	1.10336000
Ti	12.34155588	2.47241000	1.99114000
Ti	27.58904776	2.47241000	1.99114000
Ti	16.15343588	2.47241000	1.99114000
Ti	19.96530588	2.47241000	1.99114000
Ti	10.43561588	7.71594000	1.99115000
Ti	25.68310776	7.71594000	1.99115000
Ti	14.24749588	7.71594000	1.99115000
Ti	29.49498776	7.71594000	1.99115000
Ti	18.05936588	7.71594000	1.99115000
O	6.62374588	8.81302000	0.37332000
O	21.87123776	8.81302000	0.37332000
O	8.52968588	3.56949000	0.37332000
O	23.77717776	3.56949000	0.37332000
O	8.52968588	0.60134000	1.26110000
O	23.77717776	0.60134000	1.26110000
O	6.62374588	5.84486000	1.26111000
O	21.87123776	5.84486000	1.26111000
O	6.62374588	2.06812000	1.83340000
O	21.87123776	2.06812000	1.83340000
O	8.52968588	7.31164000	1.83340000
O	23.77717776	7.31164000	1.83340000
O	8.52968588	4.34349000	2.72118000
O	23.77717776	4.34349000	2.72118000
O	6.62374588	9.58701000	2.72118000
O	21.87123776	9.58701000	2.72118000
O	10.43561588	8.81302000	0.37332000
O	25.68310776	8.81302000	0.37332000
O	14.24749588	8.81302000	0.37332000
O	29.49498776	8.81302000	0.37332000
O	18.05936588	8.81302000	0.37332000
O	12.34155588	3.56949000	0.37332000
O	27.58904776	3.56949000	0.37332000
O	16.15343588	3.56949000	0.37332000
O	19.96530588	3.56949000	0.37332000
O	12.34155588	0.60134000	1.26110000
O	27.58904776	0.60134000	1.26110000
O	16.15343588	0.60134000	1.26110000
O	19.96530588	0.60134000	1.26110000
O	10.43561588	5.84486000	1.26111000
O	25.68310776	5.84486000	1.26111000
O	14.24749588	5.84486000	1.26111000
O	29.49498776	5.84486000	1.26111000
O	18.05936588	5.84486000	1.26111000
O	10.43561588	2.06812000	1.83340000
O	25.68310776	2.06812000	1.83340000
O	14.24749588	2.06812000	1.83340000
O	29.49498776	2.06812000	1.83340000
O	18.05936588	2.06812000	1.83340000
O	12.34155588	7.31164000	1.83340000
O	27.58904776	7.31164000	1.83340000
O	16.15343588	7.31164000	1.83340000
O	19.96530588	7.31164000	1.83340000
O	12.34155588	4.34349000	2.72118000
O	27.58904776	4.34349000	2.72118000
O	16.15343588	4.34349000	2.72118000
O	19.96530588	4.34349000	2.72118000
O	10.43561588	9.58701000	2.72118000
O	25.68310776	9.58701000	2.72118000
O	14.24749588	9.58701000	2.72118000
O	29.49498776	9.58701000	2.72118000
O	18.05936588	9.58701000	2.72118000
Ti	2.81187400	10.68408607	1.10336000
Ti	2.81187400	21.17113214	1.10336000
Ti	0.90594400	15.92761607	1.10336000
Ti	0.90594400	26.41466214	1.10336000
Ti	4.71781400	15.92761607	1.10336000
Ti	4.71781400	26.41466214	1.10336000
Ti	0.90594400	12.95945607	1.99114000
Ti	0.90594400	23.44650214	1.99114000
Ti	4.71781400	12.95945607	1.99114000
Ti	4.71781400	23.44650214	1.99114000
Ti	2.81187400	18.20298607	1.99115000
Ti	2.81187400	28.69003214	1.99115000
O	2.81187400	19.30006607	0.37332000
O	2.81187400	29.78711214	0.37332000
O	0.90594400	14.05653607	0.37332000
O	0.90594400	24.54358214	0.37332000
O	4.71781400	14.05653607	0.37332000
O	4.71781400	24.54358214	0.37332000
O	0.90594400	11.08838607	1.26110000
O	0.90594400	21.57543214	1.26110000
O	4.71781400	11.08838607	1.26110000
O	4.71781400	21.57543214	1.26110000
O	2.81187400	16.33190607	1.26111000
O	2.81187400	26.81895214	1.26111000
O	2.81187400	12.55516607	1.83340000
O	2.81187400	23.04221214	1.83340000
O	0.90594400	17.79868607	1.83340000
O	0.90594400	28.28573214	1.83340000
O	4.71781400	17.79868607	1.83340000
O	4.71781400	28.28573214	1.83340000
O	0.90594400	14.83053607	2.72118000
O	0.90594400	25.31758214	2.72118000
O	4.71781400	14.83053607	2.72118000
O	4.71781400	25.31758214	2.72118000
O	2.81187400	20.07405607	2.72118000
O	2.81187400	30.56110214	2.72118000
Ti	6.62374588	10.68408607	1.10336000
Ti	6.62374588	21.17113214	1.10336000
Ti	21.87123776	10.68408607	1.10336000
Ti	21.87123776	21.17113214	1.10336000
Ti	8.52968588	15.92761607	1.10336000
Ti	8.52968588	26.41466214	1.10336000
Ti	23.77717776	15.92761607	1.10336000
Ti	23.77717776	26.41466214	1.10336000
Ti	8.52968588	12.95945607	1.99114000
Ti	8.52968588	23.44650214	1.99114000
Ti	23.77717776	12.95945607	1.99114000
Ti	23.77717776	23.44650214	1.99114000
Ti	6.62374588	18.20298607	1.99115000
Ti	6.62374588	28.69003214	1.99115000
Ti	21.87123776	18.20298607	1.99115000
Ti	21.87123776	28.69003214	1.99115000
Ti	10.43561588	10.68408607	1.10336000
Ti	10.43561588	21.17113214	1.10336000
Ti	25.68310776	10.68408607	1.10336000
Ti	25.68310776	21.17113214	1.10336000
Ti	14.24749588	10.68408607	1.10336000
Ti	14.24749588	21.17113214	1.10336000
Ti	29.49498776	10.68408607	1.10336000
Ti	29.49498776	21.17113214	1.10336000
Ti	18.05936588	10.68408607	1.10336000
Ti	18.05936588	21.17113214	1.10336000
Ti	12.34155588	15.92761607	1.10336000
Ti	12.34155588	26.41466214	1.10336000
Ti	27.58904776	15.92761607	1.10336000
Ti	27.58904776	26.41466214	1.10336000
Ti	16.15343588	15.92761607	1.10336000
Ti	16.15343588	26.41466214	1.10336000
Ti	19.96530588	15.92761607	1.10336000
Ti	19.96530588	26.41466214	1.10336000
Ti	12.34155588	12.95945607	1.99114000
Ti	12.34155588	23.44650214	1.99114000
Ti	27.58904776	12.95945607	1.99114000
Ti	27.58904776	23.44650214	1.99114000
Ti	16.15343588	12.95945607	1.99114000
Ti	16.15343588	23.44650214	1.99114000
Ti	19.96530588	12.95945607	1.99114000
Ti	19.96530588	23.44650214	1.99114000
Ti	10.43561588	18.20298607	1.99115000
Ti	10.43561588	28.69003214	1.99115000
Ti	25.68310776	18.20298607	1.99115000
Ti	25.68310776	28.69003214	1.99115000
Ti	14.24749588	18.20298607	1.99115000
Ti	14.24749588	28.69003214	1.99115000
Ti	29.49498776	18.20298607	1.99115000
Ti	29.49498776	28.69003214	1.99115000
Ti	18.05936588	18.20298607	1.99115000
Ti	18.05936588	28.69003214	1.99115000
O	6.62374588	19.30006607	0.37332000
O	6.62374588	29.78711214	0.37332000
O	21.87123776	19.30006607	0.37332000
O	21.87123776	29.78711214	0.37332000
O	8.52968588	14.05653607	0.37332000
O	8.52968588	24.54358214	0.37332000
O	23.77717776	14.05653607	0.37332000
O	23.77717776	24.54358214	0.37332000
O	8.52968588	11.08838607	1.26110000
O	8.52968588	21.57543214	1.26110000
O	23.77717776	11.08838607	1.26110000
O	23.77717776	21.57543214	1.26110000
O	6.62374588	16.33190607	1.26111000
O	6.62374588	26.81895214	1.26111000
O	21.87123776	16.33190607	1.26111000
O	21.87123776	26.81895214	1.26111000
O	6.62374588	12.55516607	1.83340000
O	6.62374588	23.04221214	1.83340000
O	21.87123776	12.55516607	1.83340000
O	21.87123776	23.04221214	1.83340000
O	8.52968588	17.79868607	1.83340000
O	8.52968588	28.28573214	1.83340000
O	23.77717776	17.79868607	1.83340000
O	23.77717776	28.28573214	1.83340000
O	8.52968588	14.83053607	2.72118000
O	8.52968588	25.31758214	2.72118000
O	23.77717776	14.83053607	2.72118000
O	23.77717776	25.31758214	2.72118000
O	6.62374588	20.07405607	2.72118000
O	6.62374588	30.56110214	2.72118000
O	21.87123776	20.07405607	2.72118000
O	21.87123776	30.56110214	2.72118000
O	10.43561588	19.30006607	0.37332000
O	10.43561588	29.78711214	0.37332000
O	25.68310776	19.30006607	0.37332000
O	25.68310776	29.78711214	0.37332000
O	14.24749588	19.30006607	0.37332000
O	14.24749588	29.78711214	0.37332000
O	29.49498776	19.30006607	0.37332000
O	29.49498776	29.78711214	0.37332000
O	18.05936588	19.30006607	0.37332000
O	18.05936588	29.78711214	0.37332000
O	12.34155588	14.05653607	0.37332000
O	12.34155588	24.54358214	0.37332000
O	27.58904776	14.05653607	0.37332000
O	27.58904776	24.54358214	0.37332000
O	16.15343588	14.05653607	0.37332000
O	16.15343588	24.54358214	0.37332000
O	19.96530588	14.05653607	0.37332000
O	19.96530588	24.54358214	0.37332000
O	12.34155588	11.08838607	1.26110000
O	12.34155588	21.57543214	1.26110000
O	27.58904776	11.08838607	1.26110000
O	27.58904776	21.57543214	1.26110000
O	16.15343588	11.08838607	1.26110000
O	16.15343588	21.57543214	1.26110000
O	19.96530588	11.08838607	1.26110000
O	19.96530588	21.57543214	1.26110000
O	10.43561588	16.33190607	1.26111000
O	10.43561588	26.81895214	1.26111000
O	25.68310776	16.33190607	1.26111000
O	25.68310776	26.81895214	1.26111000
O	14.24749588	16.33190607	1.26111000
O	14.24749588	26.81895214	1.26111000
O	29.49498776	16.33190607	1.26111000
O	29.49498776	26.81895214	1.26111000
O	18.05936588	16.33190607	1.26111000
O	18.05936588	26.81895214	1.26111000
O	10.43561588	12.55516607	1.83340000
O	10.43561588	23.04221214	1.83340000
O	25.68310776	12.55516607	1.83340000
O	25.68310776	23.04221214	1.83340000
O	14.24749588	12.55516607	1.83340000
O	14.24749588	23.04221214	1.83340000
O	29.49498776	12.55516607	1.83340000
O	29.49498776	23.04221214	1.83340000
O	18.05936588	12.55516607	1.83340000
O	18.05936588	23.04221214	1.83340000
O	12.34155588	17.79868607	1.83340000
O	12.34155588	28.28573214	1.83340000
O	27.58904776	17.79868607	1.83340000
O	27.58904776	28.28573214	1.83340000
O	16.15343588	17.79868607	1.83340000
O	16.15343588	28.28573214	1.83340000
O	19.96530588	17.79868607	1.83340000
O	19.96530588	28.28573214	1.83340000
O	12.34155588	14.83053607	2.72118000
O	12.34155588	25.31758214	2.72118000
O	27.58904776	14.83053607	2.72118000
O	27.58904776	25.31758214	2.72118000
O	16.15343588	14.83053607	2.72118000
O	16.15343588	25.31758214	2.72118000
O	19.96530588	14.83053607	2.72118000
O	19.96530588	25.31758214	2.72118000
O	10.43561588	20.07405607	2.72118000
O	10.43561588	30.56110214	2.72118000
O	25.68310776	20.07405607	2.72118000
O	25.68310776	30.56110214	2.72118000
O	14.24749588	20.07405607	2.72118000
O	14.24749588	30.56110214	2.72118000
O	29.49498776	20.07405607	2.72118000
O	29.49498776	30.56110214	2.72118000
O	18.05936588	20.07405607	2.72118000
O	18.05936588	30.56110214	2.72118000
Ti	6.66939311	9.26432369	4.66522399
Ti	6.47434644	6.28849965	5.47346768
Ti	2.80783847	9.09093467	4.70915843
Ti	0.87004166	3.97913726	4.85168159
Ti	4.71540060	3.87348966	4.87748042
Ti	0.89333103	1.11736162	5.63934991
Ti	4.71426258	0.98076025	5.52749357
Ti	2.74738058	6.23027680	5.53914525
O	6.55474773	7.40958516	3.92020353
O	6.54928667	4.50241419	4.90250373
O	6.62863422	0.36660382	5.87313794
O	6.55991401	8.15913432	6.29125974
O	2.83338674	7.28880724	3.85178542
O	0.72354419	2.15856845	4.01453209
O	4.75931220	2.08246080	3.98012605
O	0.90617671	9.72730770	4.50669632
O	4.72313407	9.66311652	4.73451141
O	2.79282042	4.39355049	4.74845242
O	2.75264046	0.49284554	5.88834673
O	0.82958215	5.65042230	6.05355630
O	4.63891028	5.79822075	5.88374750
O	0.92577317	2.89101611	6.47152849
O	4.62118806	2.83415702	6.48205046
O	2.81022689	7.92330830	6.33193733
Ti	21.79316894	9.24974580	4.72438983
Ti	8.45790288	4.07064116	4.75559925
Ti	23.84159053	3.98505535	4.76907780
Ti	8.48313894	1.05463402	5.49856616
Ti	23.83083555	1.05949634	5.48194871
Ti	21.94730291	6.32615832	5.43780294
Ti	10.45910230	9.26010012	4.72420387
Ti	25.69660870	9.21050705	4.63600692
Ti	14.21171460	9.23533383	4.74384277
Ti	29.50964955	9.22483941	4.72332754
Ti	18.00968914	9.31415590	4.68471868
Ti	12.33974604	4.01576679	4.72247632
Ti	27.61088733	3.93657075	4.79613666
Ti	16.18748583	3.93835241	4.69956122
Ti	19.93112351	4.07374639	4.77696770
Ti	12.32224306	1.14643160	5.54676212
Ti	27.61962484	0.98896226	5.53577056
Ti	16.17858195	1.00711957	5.51265097
Ti	19.88555316	1.14174052	5.56504868
Ti	10.31693146	6.39733844	5.42121040
Ti	25.64026146	6.28058465	5.59251905
Ti	14.30699019	6.25391127	5.42898150
Ti	29.41648572	6.21863400	5.48860187
Ti	18.07678632	6.40247536	5.53807615
O	21.84910673	7.35205959	3.89255969
O	8.51871189	2.23912795	4.03056320
O	23.53337670	2.16092549	3.95017223
O	8.56013148	9.72816651	4.70029864
O	23.77055787	9.60934053	4.79055377
O	21.88746987	4.52037734	4.73595583
O	21.79559904	0.66542017	5.69191815
O	8.43805680	5.91766558	5.69624049
O	23.74246404	5.80676073	5.90530028
O	8.19255621	2.81183258	6.41152595
O	23.80864621	2.80907698	6.27429527
O	21.82662563	8.09696835	6.30230418
O	10.22013558	7.30879776	3.83957517
O	25.63510144	7.36236689	3.96835267
O	14.17948217	7.37126717	3.91067472
O	29.59098829	7.28554456	3.95658992
O	17.82691563	7.44696317	3.93406915
O	12.49199479	2.12249408	3.96167142
O	27.64048852	2.11205191	3.95376630
O	16.30436454	2.11371028	3.95494342
O	19.98542145	2.20368577	3.95789625
O	12.32005860	9.62711475	4.81436379
O	27.61512537	9.78406144	4.74221202
O	16.06735699	9.77328899	4.73489472
O	19.92598021	9.85238925	4.76597247
O	10.47685774	4.33135569	4.98198958
O	25.67233116	4.39900482	4.78810028
O	14.28628497	4.38588688	4.71676765
O	29.43150423	4.34379752	5.18969925
O	18.11214157	4.52684035	4.63139651
O	10.43114782	0.69384063	5.77231869
O	25.66087954	0.43160232	5.71713970
O	14.22579616	0.60527117	5.72964401
O	29.50314960	0.62109080	5.78881176
O	18.04332401	0.43357366	5.96399607
O	12.38473773	5.90825168	5.50381600
O	27.57488568	5.85372349	5.55235270
O	16.12032150	5.80362526	5.81578662
O	19.93065504	5.84192446	5.72962023
O	12.39052540	2.88171203	6.36917756
O	27.44743060	2.76211492	6.41233239
O	16.17539385	2.75725893	6.38142341
O	19.91818866	2.92107848	6.37978427
O	10.62305716	8.15130511	6.32376744
O	25.73248603	8.16839145	6.27157647
O	14.13605763	8.13274862	6.29018768
O	29.42826162	7.99442297	6.30985131
O	18.09347643	8.10332009	6.33959797
Ti	6.76726832	19.67266557	4.78000423
Ti	6.59909395	30.07517010	4.80110615
Ti	6.58901382	16.77453609	5.45671245
Ti	6.71932689	27.15237721	5.52885460
Ti	2.92343646	19.68139937	4.76684624
Ti	2.79294752	30.14601063	4.70796749
Ti	0.92942817	14.43710237	4.80314170
Ti	0.80495041	24.87459886	4.76666575
Ti	4.74719734	14.38909720	4.70853413
Ti	4.73151011	24.85217990	4.78053488
Ti	0.94223243	11.48026486	5.43061747
Ti	1.00268891	21.93808840	5.53654241
Ti	4.69120589	11.48734314	5.48515434
Ti	4.84167044	21.97092441	5.57845483
Ti	2.88739137	16.80763456	5.57989467
Ti	2.79036320	27.19611871	5.41052218
O	6.73876687	17.78408001	3.97171688
O	6.66965320	28.24864807	3.95203654
O	6.63257460	14.91435971	4.62072933
O	6.73339138	25.23606626	4.72114589
O	6.55649100	11.18906078	5.64429487
O	6.74676240	21.39018698	5.87538262
O	6.88959130	18.48064896	6.44190315
O	6.59713713	28.83160345	6.38189456
O	2.93398827	17.81866195	3.99961792
O	2.88891500	28.18337662	3.87967029
O	1.08184994	12.62670236	3.94563347
O	0.88321153	23.02897804	3.96083673
O	4.69353832	12.55403908	3.91061501
O	4.77115496	23.05146916	3.95524360
O	0.93286743	20.11537595	4.68302211
O	0.81883790	30.69989243	4.57202780
O	4.88964276	19.93732795	4.82155697
O	4.65199122	30.53472586	4.78199933
O	2.81977699	14.89513071	4.68343741
O	2.77486189	25.25764930	4.85682827
O	2.71027088	10.76294707	5.97472636
O	2.88639660	21.42332755	5.70537451
O	0.99142293	16.28457238	5.86623482
O	0.95809290	26.69111077	5.78884199
O	4.78198079	16.20533892	5.76480388
O	4.79216449	26.65996298	5.83215948
O	0.90863216	13.24816514	6.37903365
O	0.90614829	23.71245471	6.36353237
O	4.73984502	13.22325363	6.26213837
O	4.82043868	23.69980130	6.41821492
O	2.80013771	18.59111644	6.39933655
O	2.67032409	28.97415430	6.17019470
Ti	21.89895341	19.75237855	4.72002981
Ti	21.80274053	30.14435330	4.79570792
Ti	8.45987222	14.42507834	4.69866953
Ti	8.60090122	24.91900018	4.71491606
Ti	23.80945145	14.41881212	4.76032407
Ti	23.72815751	24.86231117	4.83262254
Ti	8.50279904	11.53852808	5.44314360
Ti	8.59146740	22.03483654	5.51324045
Ti	23.83298104	11.53966167	5.39818202
Ti	23.83128872	21.96953275	5.56160440
Ti	21.79904778	16.78979160	5.54305507
Ti	21.85317121	27.16809352	5.41858566
Ti	10.56103803	19.65058438	4.78613296
Ti	10.41005130	30.27324945	4.71617591
Ti	25.68588588	19.61303505	4.62279712
Ti	25.64410331	30.06738172	4.73879060
Ti	14.39434764	19.58564526	4.71390775
Ti	14.20863711	30.20912624	4.74121699
Ti	29.50700050	19.64475879	4.67929834
Ti	29.46550151	30.19063548	4.82577812
Ti	18.13944250	19.69219440	4.73433571
Ti	18.04769607	30.16814460	4.71788259
Ti	12.30498105	14.57107285	4.67569675
Ti	12.37466545	24.99138095	4.80964211
Ti	27.60264401	14.52333199	4.73964918
Ti	27.61255154	24.90843994	4.67404063
Ti	16.16564775	14.60847546	4.75781988
Ti	16.09039561	24.83982651	4.78311949
Ti	19.93367898	14.45694838	4.64494123
Ti	19.99008695	24.94338301	4.66984039
Ti	12.28441928	11.68569724	5.41947679
Ti	12.43562684	21.96583670	5.45471065
Ti	27.59283848	11.63032468	5.49060256
Ti	27.72610242	22.00867340	5.60433568
Ti	16.13397486	11.64549966	5.48443777
Ti	16.26671320	21.93058638	5.52208745
Ti	20.04489465	11.61860309	5.57420085
Ti	19.99848960	22.09224003	5.54586246
Ti	10.30887708	16.73122095	5.41148443
Ti	10.39389766	27.34292434	5.46633177
Ti	25.68237458	16.75919627	5.38861674
Ti	25.65152695	27.16385535	5.48248190
Ti	14.16611905	16.79673771	5.78877100
Ti	14.12644447	27.35021660	5.49079072
Ti	29.60106574	16.73328348	5.46838405
Ti	29.53408376	27.30807340	5.58245357
Ti	18.17315774	16.78330314	5.55411669
Ti	18.01070198	27.23755844	5.41403830
O	22.09427490	17.93174344	4.02558740
O	21.62549687	28.31207327	3.92864065
O	8.60572660	12.55096226	3.92343591
O	8.46950941	23.00883822	3.91889429
O	23.69114009	12.51096980	3.86642021
O	23.94895894	22.99691045	3.98605055
O	8.68977391	20.18996133	4.81906275
O	8.45773592	30.67280639	4.73764946
O	23.84123398	20.16513742	4.88741617
O	23.63127660	30.66605795	4.79845911
O	21.94692090	14.87228048	4.71738617
O	21.82235804	25.35122831	4.72270923
O	21.92146699	11.00988631	5.80698484
O	21.91549303	21.45048758	5.84456997
O	8.49357197	16.30072134	5.93396642
O	8.56367638	26.72208335	5.86335981
O	23.81008687	16.18555938	5.73984516
O	23.73028839	26.66479782	5.76311831
O	8.51238458	13.20877400	6.33362244
O	8.72040904	23.84610729	6.30116381
O	23.73088266	13.20813933	6.34274186
O	23.65245221	23.75874079	6.39067253
O	21.85295780	18.47965691	6.35464148
O	21.69423852	28.86480609	6.30151371
O	10.39936054	17.91691168	3.94665416
O	10.16383858	28.31989574	3.87289644
O	25.69256988	17.78990807	3.88269574
O	25.76232866	28.22907221	3.89849337
O	14.23884185	17.76683714	3.91961706
O	14.22229707	28.17443107	3.88438915
O	29.56787149	17.77538304	3.93363379
O	29.40303303	28.38571751	3.97475757
O	18.27282447	17.72791977	3.90348074
O	18.05026639	28.34583161	3.86958048
O	12.62581921	12.73552677	3.90729553
O	12.25619825	22.99837586	3.95901073
O	27.41471255	12.67477867	3.92041500
O	27.68195431	22.99281486	3.88281310
O	16.41581522	12.61853756	3.91943793
O	16.25756888	22.99996061	3.96539308
O	19.93770098	12.61754426	3.94058654
O	20.04871769	23.05502610	3.89487637
O	12.47322435	19.97636335	4.67912710
O	12.31819919	30.65300082	4.73057442
O	27.54972857	20.07505446	4.66092837
O	27.61652972	30.58123750	4.84990687
O	16.29637930	20.14753488	4.65046103
O	16.09112383	30.58886284	4.77661742
O	20.04327191	20.26956150	4.71658615
O	19.92199756	30.78181710	4.75157405
O	10.33233772	14.84947894	4.79218766
O	10.53222143	25.45896264	4.72514664
O	25.66135964	14.81817816	4.89642414
O	25.61573466	25.27989699	4.78290239
O	14.26332442	14.91094133	4.75862395
O	14.23716278	25.48601423	4.77491099
O	29.54483524	14.81262241	4.89104270
O	29.54004040	25.50521490	4.76772654
O	18.11085737	14.91266579	4.71075510
O	18.03515281	25.39757935	4.73083655
O	10.44807091	11.12707286	5.66482855
O	10.50853905	21.48969981	5.88163718
O	25.76387213	11.06604688	5.75763893
O	25.74097994	21.55410998	5.82531577
O	14.20190259	11.06153817	5.84718581
O	14.28611028	21.48530612	5.82219355
O	29.46342830	11.00293219	5.84358971
O	29.59978478	21.44316589	5.83843819
O	18.06984342	11.10763096	5.83355301
O	18.11321282	21.45843187	5.72834462
O	12.12257776	16.23135387	5.78327371
O	12.29678174	26.74438493	5.74116431
O	27.67465033	16.27350792	5.79758648
O	27.53566795	26.79451919	5.74301190
O	16.15545986	16.43080919	5.63722582
O	16.07875143	26.93135537	5.67962104
O	20.01617513	16.19464546	5.79883246
O	19.93747393	26.74814562	5.68145192
O	12.23883690	13.39463441	6.29448802
O	12.54863618	23.74390808	6.26937769
O	27.70163863	13.35499485	6.35383877
O	27.62486222	23.76701992	6.19387450
O	16.19417042	13.43307220	6.37777985
O	16.16124334	23.74620990	6.39725629
O	20.05159776	13.43633156	6.33509099
O	19.74326795	23.86531048	6.21795604
O	10.50501721	18.37188500	6.36638053
O	10.45111998	29.11747921	6.24161355
O	25.65737087	18.50385068	6.29724486
O	25.50865154	28.91843324	6.31230209
O	14.24850767	18.66519511	6.40997932
O	14.15766727	29.05838052	6.37502430
O	29.65448967	18.45002236	6.27877460
O	29.80751050	28.97833976	6.40122788
O	18.20078028	18.49189264	6.26343801
O	18.23301544	29.02063366	6.36119051
H	15.55915184	14.23936381	7.73042979
H	15.73480530	15.18277781	11.39309859
H	14.01023055	18.23918789	8.77001353
O	14.40081278	16.22158567	7.60742400
O	15.41673448	14.52542685	8.68775554
C	14.90195272	15.72528324	8.73971097
C	14.91459780	16.57379377	9.89436723
C	15.40443419	16.23606121	11.19796377
C	14.41175164	17.91728187	9.80509803
N	13.37793306	19.52159195	15.47059525
N	15.34695442	22.68643557	17.24870660
N	15.46649273	21.33861162	14.50204609
N	13.26146072	20.97970517	18.07016860
C	20.47547944	24.43665773	15.36627414
C	14.44633788	24.38213866	22.86076679
C	8.26341260	17.97311795	17.40423483
C	18.07939153	24.00074425	15.09620798
C	13.81924473	23.72647380	20.60577967
C	10.69385656	18.25869562	17.85319536
C	19.04876545	26.08019463	14.19706636
C	12.57231912	25.42926985	21.80901313
C	9.37034954	16.63726745	19.11552903
C	14.60642545	19.33376231	13.31505518
C	16.92538491	23.15643645	15.34556636
C	14.06100933	22.95667268	19.32057869
C	11.90944569	18.96873514	17.35274940
C	15.40989335	20.51179555	13.45473490
C	16.52757269	22.21704556	14.42082976
C	13.18458561	21.85407905	19.13746059
C	12.20768531	20.09054425	18.17600440
C	16.45952676	20.90035099	12.51631257
C	17.11778826	21.96987195	13.10049192
C	12.07900879	21.50958704	20.00600564
C	11.50417508	20.40878439	19.42550759
C	13.69358994	18.92856775	14.26348818
C	16.37300797	23.38889335	16.60273169
C	15.09703514	23.32566972	18.45937288
C	12.44125622	18.71189178	16.08513848
C	12.85333602	17.74154588	14.08178143
C	16.80202199	24.42680593	17.52596370
C	15.97630208	24.42415972	18.63831478
C	12.05407937	17.63146041	15.19555303
H	12.81253409	17.10763070	13.15497621
H	17.67313859	25.07368546	17.26071966
H	16.02039108	25.11479986	19.51601028
H	11.40814265	16.80583384	15.44870476
H	16.53888210	20.43209911	11.55502413
H	17.85568777	22.64728357	12.68299794
H	11.67067243	22.08652552	20.83873809
H	10.66389786	19.88776446	19.82210229
H	18.89316414	27.06025828	13.69785320
H	11.74738102	26.16990213	21.80613430
H	9.41402371	15.94236595	19.95157942
H	21.42924581	23.95817488	15.44951842
H	15.15895341	24.25309139	23.69208239
H	7.29876930	18.39296751	17.00911776
H	14.84590796	21.27900340	15.31462320
H	14.09401810	20.94759438	17.48205425
C	21.49600245	26.30088968	14.14462327
H	21.55670489	26.29059368	13.03599627
H	22.45358634	25.97264749	14.54529406
H	21.44627518	27.39799295	14.29319861
C	19.51900928	22.48541385	16.57083493
H	19.17640490	21.52872770	16.18969791
H	19.05681084	22.69825984	17.52251801
H	20.62032564	22.38301651	16.68191060
C	16.59199723	25.52452507	13.83296539
H	16.17535697	24.58730619	13.54303067
H	16.67825659	26.14535904	12.95995889
H	15.99329470	25.91791814	14.63571141
C	11.73126436	16.79884163	19.60892476
H	11.70657977	15.70925301	19.67959340
H	11.61244385	17.11157673	20.64301888
H	12.70546867	17.16540371	19.28434874
C	9.40121244	19.78345049	16.24663286
H	8.40728218	20.12939435	16.04121837
H	9.89710716	19.68156552	15.28983410
H	9.86305233	20.60426731	16.78446277
C	6.86276907	16.53008431	18.87734136
H	6.79366638	16.52315138	19.99692434
H	6.57523002	15.48781912	18.59290275
H	6.04675694	17.19235924	18.48249260
C	11.75171347	24.73592403	19.56608249
H	10.98725667	23.95606745	19.64367039
H	12.25518801	24.57049599	18.61123746
H	11.23674268	25.71209567	19.60199054
C	15.75608565	22.65017885	21.64448500
H	16.61922624	22.87898273	22.35205026
H	16.04244529	22.57617467	20.60338284
H	15.39057332	21.59170273	21.79762267
C	13.08602571	26.11802119	24.15042090
H	13.77945537	26.98789269	24.26052468
H	13.23496918	25.47234608	25.01587643
H	12.02888709	26.40925350	24.13945018
C	20.29135282	25.57123094	14.56826234
C	19.32988430	23.66319133	15.64648535
C	17.93352626	25.21210159	14.36034670
C	12.70967273	24.63349451	20.66830757
C	14.63763432	23.58779354	21.74955233
C	13.42759090	25.36679341	22.92452198
C	10.57583307	17.27954431	18.81685072
C	9.45882999	18.61962288	17.15058432
C	8.19756884	16.97907902	18.41359482
H	15.82555747	16.98900466	13.22889187
H	13.88996759	19.75306901	10.66607723
C	14.83170180	18.48512023	12.11152742
C	15.39587219	17.17406894	12.24756547
C	14.31350246	18.80469317	10.85250333

Ti O H C N 0
6-31G*
****

