%chk=f00018568.chk
%mem=24GB
%nproc=12
#p b3lyp/6-31G*

title

0 1
Ti	2.81187400	0.19704000	1.10336000
Ti	0.90594400	5.44057000	1.10336000
Ti	4.71781400	5.44057000	1.10336000
Ti	0.90594400	2.47241000	1.99114000
Ti	4.71781400	2.47241000	1.99114000
Ti	2.81187400	7.71594000	1.99115000
O	2.81187400	8.81302000	0.37332000
O	0.90594400	3.56949000	0.37332000
O	4.71781400	3.56949000	0.37332000
O	0.90594400	0.60134000	1.26110000
O	4.71781400	0.60134000	1.26110000
O	2.81187400	5.84486000	1.26111000
O	2.81187400	2.06812000	1.83340000
O	0.90594400	7.31164000	1.83340000
O	4.71781400	7.31164000	1.83340000
O	0.90594400	4.34349000	2.72118000
O	4.71781400	4.34349000	2.72118000
O	2.81187400	9.58701000	2.72118000
Ti	6.62374588	0.19704000	1.10336000
Ti	21.87123776	0.19704000	1.10336000
Ti	8.52968588	5.44057000	1.10336000
Ti	23.77717776	5.44057000	1.10336000
Ti	8.52968588	2.47241000	1.99114000
Ti	23.77717776	2.47241000	1.99114000
Ti	6.62374588	7.71594000	1.99115000
Ti	21.87123776	7.71594000	1.99115000
Ti	10.43561588	0.19704000	1.10336000
Ti	25.68310776	0.19704000	1.10336000
Ti	14.24749588	0.19704000	1.10336000
Ti	29.49498776	0.19704000	1.10336000
Ti	18.05936588	0.19704000	1.10336000
Ti	12.34155588	5.44057000	1.10336000
Ti	27.58904776	5.44057000	1.10336000
Ti	16.15343588	5.44057000	1.10336000
Ti	19.96530588	5.44057000	1.10336000
Ti	12.34155588	2.47241000	1.99114000
Ti	27.58904776	2.47241000	1.99114000
Ti	16.15343588	2.47241000	1.99114000
Ti	19.96530588	2.47241000	1.99114000
Ti	10.43561588	7.71594000	1.99115000
Ti	25.68310776	7.71594000	1.99115000
Ti	14.24749588	7.71594000	1.99115000
Ti	29.49498776	7.71594000	1.99115000
Ti	18.05936588	7.71594000	1.99115000
O	6.62374588	8.81302000	0.37332000
O	21.87123776	8.81302000	0.37332000
O	8.52968588	3.56949000	0.37332000
O	23.77717776	3.56949000	0.37332000
O	8.52968588	0.60134000	1.26110000
O	23.77717776	0.60134000	1.26110000
O	6.62374588	5.84486000	1.26111000
O	21.87123776	5.84486000	1.26111000
O	6.62374588	2.06812000	1.83340000
O	21.87123776	2.06812000	1.83340000
O	8.52968588	7.31164000	1.83340000
O	23.77717776	7.31164000	1.83340000
O	8.52968588	4.34349000	2.72118000
O	23.77717776	4.34349000	2.72118000
O	6.62374588	9.58701000	2.72118000
O	21.87123776	9.58701000	2.72118000
O	10.43561588	8.81302000	0.37332000
O	25.68310776	8.81302000	0.37332000
O	14.24749588	8.81302000	0.37332000
O	29.49498776	8.81302000	0.37332000
O	18.05936588	8.81302000	0.37332000
O	12.34155588	3.56949000	0.37332000
O	27.58904776	3.56949000	0.37332000
O	16.15343588	3.56949000	0.37332000
O	19.96530588	3.56949000	0.37332000
O	12.34155588	0.60134000	1.26110000
O	27.58904776	0.60134000	1.26110000
O	16.15343588	0.60134000	1.26110000
O	19.96530588	0.60134000	1.26110000
O	10.43561588	5.84486000	1.26111000
O	25.68310776	5.84486000	1.26111000
O	14.24749588	5.84486000	1.26111000
O	29.49498776	5.84486000	1.26111000
O	18.05936588	5.84486000	1.26111000
O	10.43561588	2.06812000	1.83340000
O	25.68310776	2.06812000	1.83340000
O	14.24749588	2.06812000	1.83340000
O	29.49498776	2.06812000	1.83340000
O	18.05936588	2.06812000	1.83340000
O	12.34155588	7.31164000	1.83340000
O	27.58904776	7.31164000	1.83340000
O	16.15343588	7.31164000	1.83340000
O	19.96530588	7.31164000	1.83340000
O	12.34155588	4.34349000	2.72118000
O	27.58904776	4.34349000	2.72118000
O	16.15343588	4.34349000	2.72118000
O	19.96530588	4.34349000	2.72118000
O	10.43561588	9.58701000	2.72118000
O	25.68310776	9.58701000	2.72118000
O	14.24749588	9.58701000	2.72118000
O	29.49498776	9.58701000	2.72118000
O	18.05936588	9.58701000	2.72118000
Ti	2.81187400	10.68408607	1.10336000
Ti	2.81187400	21.17113214	1.10336000
Ti	0.90594400	15.92761607	1.10336000
Ti	0.90594400	26.41466214	1.10336000
Ti	4.71781400	15.92761607	1.10336000
Ti	4.71781400	26.41466214	1.10336000
Ti	0.90594400	12.95945607	1.99114000
Ti	0.90594400	23.44650214	1.99114000
Ti	4.71781400	12.95945607	1.99114000
Ti	4.71781400	23.44650214	1.99114000
Ti	2.81187400	18.20298607	1.99115000
Ti	2.81187400	28.69003214	1.99115000
O	2.81187400	19.30006607	0.37332000
O	2.81187400	29.78711214	0.37332000
O	0.90594400	14.05653607	0.37332000
O	0.90594400	24.54358214	0.37332000
O	4.71781400	14.05653607	0.37332000
O	4.71781400	24.54358214	0.37332000
O	0.90594400	11.08838607	1.26110000
O	0.90594400	21.57543214	1.26110000
O	4.71781400	11.08838607	1.26110000
O	4.71781400	21.57543214	1.26110000
O	2.81187400	16.33190607	1.26111000
O	2.81187400	26.81895214	1.26111000
O	2.81187400	12.55516607	1.83340000
O	2.81187400	23.04221214	1.83340000
O	0.90594400	17.79868607	1.83340000
O	0.90594400	28.28573214	1.83340000
O	4.71781400	17.79868607	1.83340000
O	4.71781400	28.28573214	1.83340000
O	0.90594400	14.83053607	2.72118000
O	0.90594400	25.31758214	2.72118000
O	4.71781400	14.83053607	2.72118000
O	4.71781400	25.31758214	2.72118000
O	2.81187400	20.07405607	2.72118000
O	2.81187400	30.56110214	2.72118000
Ti	6.62374588	10.68408607	1.10336000
Ti	6.62374588	21.17113214	1.10336000
Ti	21.87123776	10.68408607	1.10336000
Ti	21.87123776	21.17113214	1.10336000
Ti	8.52968588	15.92761607	1.10336000
Ti	8.52968588	26.41466214	1.10336000
Ti	23.77717776	15.92761607	1.10336000
Ti	23.77717776	26.41466214	1.10336000
Ti	8.52968588	12.95945607	1.99114000
Ti	8.52968588	23.44650214	1.99114000
Ti	23.77717776	12.95945607	1.99114000
Ti	23.77717776	23.44650214	1.99114000
Ti	6.62374588	18.20298607	1.99115000
Ti	6.62374588	28.69003214	1.99115000
Ti	21.87123776	18.20298607	1.99115000
Ti	21.87123776	28.69003214	1.99115000
Ti	10.43561588	10.68408607	1.10336000
Ti	10.43561588	21.17113214	1.10336000
Ti	25.68310776	10.68408607	1.10336000
Ti	25.68310776	21.17113214	1.10336000
Ti	14.24749588	10.68408607	1.10336000
Ti	14.24749588	21.17113214	1.10336000
Ti	29.49498776	10.68408607	1.10336000
Ti	29.49498776	21.17113214	1.10336000
Ti	18.05936588	10.68408607	1.10336000
Ti	18.05936588	21.17113214	1.10336000
Ti	12.34155588	15.92761607	1.10336000
Ti	12.34155588	26.41466214	1.10336000
Ti	27.58904776	15.92761607	1.10336000
Ti	27.58904776	26.41466214	1.10336000
Ti	16.15343588	15.92761607	1.10336000
Ti	16.15343588	26.41466214	1.10336000
Ti	19.96530588	15.92761607	1.10336000
Ti	19.96530588	26.41466214	1.10336000
Ti	12.34155588	12.95945607	1.99114000
Ti	12.34155588	23.44650214	1.99114000
Ti	27.58904776	12.95945607	1.99114000
Ti	27.58904776	23.44650214	1.99114000
Ti	16.15343588	12.95945607	1.99114000
Ti	16.15343588	23.44650214	1.99114000
Ti	19.96530588	12.95945607	1.99114000
Ti	19.96530588	23.44650214	1.99114000
Ti	10.43561588	18.20298607	1.99115000
Ti	10.43561588	28.69003214	1.99115000
Ti	25.68310776	18.20298607	1.99115000
Ti	25.68310776	28.69003214	1.99115000
Ti	14.24749588	18.20298607	1.99115000
Ti	14.24749588	28.69003214	1.99115000
Ti	29.49498776	18.20298607	1.99115000
Ti	29.49498776	28.69003214	1.99115000
Ti	18.05936588	18.20298607	1.99115000
Ti	18.05936588	28.69003214	1.99115000
O	6.62374588	19.30006607	0.37332000
O	6.62374588	29.78711214	0.37332000
O	21.87123776	19.30006607	0.37332000
O	21.87123776	29.78711214	0.37332000
O	8.52968588	14.05653607	0.37332000
O	8.52968588	24.54358214	0.37332000
O	23.77717776	14.05653607	0.37332000
O	23.77717776	24.54358214	0.37332000
O	8.52968588	11.08838607	1.26110000
O	8.52968588	21.57543214	1.26110000
O	23.77717776	11.08838607	1.26110000
O	23.77717776	21.57543214	1.26110000
O	6.62374588	16.33190607	1.26111000
O	6.62374588	26.81895214	1.26111000
O	21.87123776	16.33190607	1.26111000
O	21.87123776	26.81895214	1.26111000
O	6.62374588	12.55516607	1.83340000
O	6.62374588	23.04221214	1.83340000
O	21.87123776	12.55516607	1.83340000
O	21.87123776	23.04221214	1.83340000
O	8.52968588	17.79868607	1.83340000
O	8.52968588	28.28573214	1.83340000
O	23.77717776	17.79868607	1.83340000
O	23.77717776	28.28573214	1.83340000
O	8.52968588	14.83053607	2.72118000
O	8.52968588	25.31758214	2.72118000
O	23.77717776	14.83053607	2.72118000
O	23.77717776	25.31758214	2.72118000
O	6.62374588	20.07405607	2.72118000
O	6.62374588	30.56110214	2.72118000
O	21.87123776	20.07405607	2.72118000
O	21.87123776	30.56110214	2.72118000
O	10.43561588	19.30006607	0.37332000
O	10.43561588	29.78711214	0.37332000
O	25.68310776	19.30006607	0.37332000
O	25.68310776	29.78711214	0.37332000
O	14.24749588	19.30006607	0.37332000
O	14.24749588	29.78711214	0.37332000
O	29.49498776	19.30006607	0.37332000
O	29.49498776	29.78711214	0.37332000
O	18.05936588	19.30006607	0.37332000
O	18.05936588	29.78711214	0.37332000
O	12.34155588	14.05653607	0.37332000
O	12.34155588	24.54358214	0.37332000
O	27.58904776	14.05653607	0.37332000
O	27.58904776	24.54358214	0.37332000
O	16.15343588	14.05653607	0.37332000
O	16.15343588	24.54358214	0.37332000
O	19.96530588	14.05653607	0.37332000
O	19.96530588	24.54358214	0.37332000
O	12.34155588	11.08838607	1.26110000
O	12.34155588	21.57543214	1.26110000
O	27.58904776	11.08838607	1.26110000
O	27.58904776	21.57543214	1.26110000
O	16.15343588	11.08838607	1.26110000
O	16.15343588	21.57543214	1.26110000
O	19.96530588	11.08838607	1.26110000
O	19.96530588	21.57543214	1.26110000
O	10.43561588	16.33190607	1.26111000
O	10.43561588	26.81895214	1.26111000
O	25.68310776	16.33190607	1.26111000
O	25.68310776	26.81895214	1.26111000
O	14.24749588	16.33190607	1.26111000
O	14.24749588	26.81895214	1.26111000
O	29.49498776	16.33190607	1.26111000
O	29.49498776	26.81895214	1.26111000
O	18.05936588	16.33190607	1.26111000
O	18.05936588	26.81895214	1.26111000
O	10.43561588	12.55516607	1.83340000
O	10.43561588	23.04221214	1.83340000
O	25.68310776	12.55516607	1.83340000
O	25.68310776	23.04221214	1.83340000
O	14.24749588	12.55516607	1.83340000
O	14.24749588	23.04221214	1.83340000
O	29.49498776	12.55516607	1.83340000
O	29.49498776	23.04221214	1.83340000
O	18.05936588	12.55516607	1.83340000
O	18.05936588	23.04221214	1.83340000
O	12.34155588	17.79868607	1.83340000
O	12.34155588	28.28573214	1.83340000
O	27.58904776	17.79868607	1.83340000
O	27.58904776	28.28573214	1.83340000
O	16.15343588	17.79868607	1.83340000
O	16.15343588	28.28573214	1.83340000
O	19.96530588	17.79868607	1.83340000
O	19.96530588	28.28573214	1.83340000
O	12.34155588	14.83053607	2.72118000
O	12.34155588	25.31758214	2.72118000
O	27.58904776	14.83053607	2.72118000
O	27.58904776	25.31758214	2.72118000
O	16.15343588	14.83053607	2.72118000
O	16.15343588	25.31758214	2.72118000
O	19.96530588	14.83053607	2.72118000
O	19.96530588	25.31758214	2.72118000
O	10.43561588	20.07405607	2.72118000
O	10.43561588	30.56110214	2.72118000
O	25.68310776	20.07405607	2.72118000
O	25.68310776	30.56110214	2.72118000
O	14.24749588	20.07405607	2.72118000
O	14.24749588	30.56110214	2.72118000
O	29.49498776	20.07405607	2.72118000
O	29.49498776	30.56110214	2.72118000
O	18.05936588	20.07405607	2.72118000
O	18.05936588	30.56110214	2.72118000
Ti	6.67030769	9.25193053	4.77965970
Ti	6.67650836	6.31419382	5.47397132
Ti	2.92426386	9.10877434	4.67020608
Ti	0.88956615	3.95289376	4.68235194
Ti	4.79034349	4.11781019	4.72912622
Ti	0.91794395	1.09585352	5.50974263
Ti	4.76374744	1.18988622	5.52394803
Ti	2.80240862	6.28476637	5.52917528
O	6.62146252	7.40110924	3.92632104
O	6.69280289	4.48208901	4.66124388
O	6.68979931	0.63602929	5.61086835
O	6.86771844	8.09881255	6.36747440
O	2.87609559	7.29427308	3.87133291
O	1.13685891	2.01837887	3.91598876
O	4.77932496	2.21474724	3.94419817
O	0.92439558	9.62226701	4.97607802
O	4.76940535	9.63550165	4.75091270
O	2.81366651	4.36660091	4.76968618
O	2.77982848	0.61186453	5.63298332
O	0.94582697	5.78538317	5.79841273
O	4.74266115	5.79181790	5.78838802
O	0.70504670	2.92596002	6.27880718
O	4.88945433	2.89069127	6.35651905
O	2.82910375	8.08855599	6.33924152
Ti	21.83815294	9.26383361	4.64973846
Ti	8.51097554	3.92707459	4.84660533
Ti	23.77569658	4.07698289	4.88493995
Ti	8.56190093	1.02850643	5.47966246
Ti	23.69498741	1.13663190	5.51205282
Ti	21.91058001	6.36540999	5.42232021
Ti	10.39237963	9.18601910	4.64791672
Ti	25.76236560	9.18425156	4.68097379
Ti	14.23046699	9.29244411	4.80311155
Ti	29.58559194	9.14344710	4.75019878
Ti	17.96037551	9.26707289	4.78607675
Ti	12.32177071	3.98330440	4.69204059
Ti	27.51939825	3.96650057	4.70431622
Ti	16.13364827	3.96110118	4.65797498
Ti	20.03248010	4.03240669	4.80176721
Ti	12.33435545	1.06990611	5.49599709
Ti	27.56679249	1.04793547	5.46003400
Ti	16.24699719	0.97908086	5.47525745
Ti	20.05341759	1.06426677	5.55056296
Ti	10.46734950	6.28604042	5.41509157
Ti	25.74031766	6.28479836	5.48010825
Ti	14.32897907	6.40298955	5.53279335
Ti	29.53404955	6.25960456	5.48937096
Ti	18.10113268	6.29217496	5.37020151
O	22.00911942	7.34760125	3.87118059
O	8.57608158	2.14397559	3.93694019
O	23.93537103	2.13945179	3.94761178
O	8.51343227	9.76877258	4.73261646
O	23.85368433	9.58888992	4.74866600
O	21.87346422	4.54291631	4.76693594
O	21.88486051	0.48592057	5.78576381
O	8.56388386	5.89071743	5.69328374
O	23.81392644	5.85365628	5.71369868
O	8.58912981	2.73037178	6.39097906
O	23.82432685	2.81506018	6.44242572
O	21.98091325	8.02456661	6.29506142
O	10.27622013	7.26541181	3.90185378
O	25.74605978	7.29835209	3.90082058
O	14.41163984	7.43149753	3.96534938
O	29.57022714	7.27899533	3.88224199
O	17.98601409	7.45147371	3.87408205
O	12.26824327	2.13470415	3.95772840
O	27.66614585	2.19789001	3.92247153
O	16.13258716	2.06474463	3.91148959
O	20.05482548	2.10352662	3.96707057
O	12.35854044	9.78900974	4.74072301
O	27.70169349	9.59041063	4.66271589
O	16.09947726	9.71810864	4.75750248
O	19.94932239	9.57313890	4.85334699
O	10.38215535	4.32912341	4.94782322
O	25.63800278	4.46408898	4.70527855
O	14.28720700	4.32052384	4.83274372
O	29.54132621	4.33274410	4.73295510
O	18.15796723	4.32489067	4.71326639
O	10.50322631	0.49155674	5.67464006
O	25.62296921	0.57173736	5.66653362
O	14.32486976	1.00648882	5.71629371
O	29.48448155	0.54237218	5.82429330
O	18.14115064	0.57655008	5.56541253
O	12.35800078	5.93023035	5.46695966
O	27.59174965	5.67351112	5.82710722
O	16.22424598	5.82513363	5.71381893
O	19.96533296	5.82431043	5.82641890
O	12.45312205	2.81405505	6.29637567
O	27.36923541	2.82053227	6.30164557
O	16.35563729	2.85854196	6.35532516
O	19.86032886	2.83984215	6.36089792
O	10.68356493	8.02487770	6.34091073
O	25.63228399	8.06792043	6.44174433
O	14.29708852	8.07135143	6.43337733
O	29.39651689	8.05342344	6.29762089
O	18.07741230	8.03545719	6.28851218
Ti	6.55686084	19.65198594	4.72750049
Ti	6.58870840	30.23776460	4.74830724
Ti	6.35278560	16.83729810	5.60459957
Ti	6.49068348	27.30937351	5.55726524
Ti	2.70949168	19.85492666	4.74025590
Ti	2.87774802	30.28789877	4.66069003
Ti	0.91638910	14.33895719	4.67481911
Ti	0.92785822	25.02766974	4.80212012
Ti	4.60309600	14.56048697	4.72137746
Ti	4.73084972	24.87452916	4.68800118
Ti	0.99023676	11.46268912	5.50273591
Ti	0.90619597	22.14975111	5.57478211
Ti	4.85125143	11.61337084	5.40928037
Ti	4.60151217	22.04813293	5.53866899
Ti	2.77541382	16.99324550	5.62427780
Ti	2.76137052	27.34182520	5.48840595
O	6.50515156	17.80825072	3.98967606
O	6.54196414	28.34967605	3.97371675
O	6.52008026	15.00690492	4.87127515
O	6.59790851	25.25060216	4.93688475
O	6.63344764	11.02373656	5.94645131
O	6.55028523	21.66443668	5.98001165
O	6.67105836	18.56200516	6.31321409
O	6.54524113	29.05466657	6.39143455
O	2.93346814	17.90767465	4.03712072
O	2.73153822	28.30775198	3.89757375
O	0.77977822	12.47537442	3.92463971
O	0.78375656	23.11221275	3.98842377
O	4.68222524	12.76520603	3.88857878
O	4.70379195	23.06867689	3.93078334
O	0.86809620	20.30268322	4.56656135
O	0.92055620	30.65221609	4.72010856
O	4.69568978	20.20465401	4.72420656
O	4.74551017	30.69177936	4.83044095
O	2.67752516	15.16747217	4.74553437
O	2.80216443	25.38803502	4.96703360
O	3.01329718	11.05168303	5.73699395
O	2.74773952	21.59757583	5.73816163
O	0.96584144	16.80227388	6.12726413
O	0.93053471	26.83403007	5.72969046
O	4.56552153	16.39570368	5.81812961
O	4.62485739	26.86553951	5.74983703
O	1.21738912	13.11999312	6.39408661
O	1.02409315	23.80705049	6.47131695
O	4.60751827	13.40570898	6.37334304
O	4.66796676	23.79997861	6.37679818
O	2.98619485	18.84759045	6.40468070
O	3.10004209	29.11075161	6.27812851
Ti	21.89036278	19.74868534	4.80664540
Ti	21.83327167	30.18644105	4.71500802
Ti	8.43430012	14.42976369	4.91328771
Ti	8.41219250	24.99679028	4.78595480
Ti	23.79565065	14.44180791	4.71580921
Ti	23.92647775	24.93479947	4.79621857
Ti	8.48123958	11.56783457	5.66652995
Ti	8.52137426	22.03905448	5.52691144
Ti	23.84520082	11.51284030	5.33079786
Ti	23.70324708	22.02935973	5.56283378
Ti	21.86584735	16.75653874	5.47413887
Ti	21.91043221	27.26193653	5.50734604
Ti	10.33898939	19.74163928	4.89628557
Ti	10.50194527	30.16731580	4.71738291
Ti	25.68407344	19.66465926	4.66661707
Ti	25.59198002	30.12029456	4.78728822
Ti	14.18842334	19.69640618	4.80590361
Ti	14.32336385	30.05191571	4.66149406
Ti	29.53531385	19.75722307	4.78639495
Ti	29.52488597	30.18508262	4.71564087
Ti	17.97782689	19.71795360	4.65184034
Ti	18.10379847	30.12118738	4.75716601
Ti	12.26062041	14.53120471	4.86789568
Ti	12.27152891	24.92158913	4.75957593
Ti	27.71964868	14.52233384	4.68355273
Ti	27.63542428	24.95895502	4.71265035
Ti	16.15449086	14.53297765	4.80369610
Ti	16.11663518	24.91716551	4.70832086
Ti	19.98886443	14.42631066	4.83523756
Ti	19.87885549	24.88188193	4.78218514
Ti	12.34349111	11.56625213	5.59173927
Ti	12.37550651	22.06774644	5.51942705
Ti	27.70419027	11.57547102	5.48050961
Ti	27.47107702	22.06948837	5.53665164
Ti	16.06761448	11.63426933	5.55774757
Ti	16.17387206	22.05662959	5.56933682
Ti	19.98772478	11.47943563	5.42176890
Ti	19.93556361	21.94376450	5.44957380
Ti	10.25033396	16.80334581	5.61140804
Ti	10.37871230	27.24989628	5.41988760
Ti	25.63246684	16.81089141	5.54622810
Ti	25.75069016	27.24233815	5.48231912
Ti	14.09086125	16.75975998	5.88762214
Ti	14.24544747	27.17753791	5.39122609
Ti	29.56750531	16.83185683	5.52564039
Ti	29.48280748	27.30164296	5.54179787
Ti	18.17264434	16.82053675	5.48639127
Ti	18.10169382	27.19307065	5.47189498
O	21.82826759	17.82938724	3.91519229
O	21.83531042	28.33660522	3.94000303
O	8.48359946	12.58700614	4.05582884
O	8.52665115	23.13281145	3.99766531
O	23.66453102	12.62084117	3.83232952
O	23.73195654	23.00956733	3.98326723
O	8.43349199	20.30045262	4.72283486
O	8.57414839	30.57564998	4.83322335
O	23.74282590	20.14292646	4.84633017
O	23.76122802	30.70619865	4.79051987
O	21.92228187	14.71059171	4.79293779
O	21.88521643	25.34334506	4.96439781
O	21.99180684	11.10822789	5.60695492
O	21.77252946	21.57041514	5.65376393
O	8.32873467	16.34622881	5.84982969
O	8.42759696	26.85711779	5.71247845
O	23.73586624	16.25950795	5.79735525
O	23.85255244	26.74577259	5.78288190
O	8.49751875	13.32573613	6.46165140
O	8.55857445	23.82719243	6.47739203
O	23.83565738	13.29253673	6.25895169
O	23.76374942	23.81304734	6.45596787
O	21.83149013	18.63120934	6.39980640
O	21.95289690	29.02402630	6.29320870
O	10.38572337	17.96906500	3.98344911
O	10.42901959	28.31485139	3.92982662
O	25.66168047	17.81787803	3.93587629
O	25.78922695	28.23618014	3.86136286
O	14.00875561	17.77924718	4.02701231
O	14.27727566	28.17583279	3.83057021
O	29.52985412	17.83406391	3.91759762
O	29.30205402	28.25277921	3.93460249
O	18.16472548	17.85346664	3.91559907
O	18.24756069	28.31644552	3.93876123
O	12.37994379	12.70109928	4.03054948
O	12.35662547	23.13997262	3.97568786
O	27.47545298	12.66968014	3.92957275
O	27.62655125	23.12045359	3.96911661
O	16.20211153	12.57013608	3.97100286
O	16.35782630	23.05596095	3.96135015
O	19.77348698	12.50877656	3.96354472
O	20.04210331	23.07857086	3.93684628
O	12.22218467	20.20058275	4.85427770
O	12.49685969	30.65882882	4.87241240
O	27.62251279	20.14280730	4.64978055
O	27.51400419	30.54969480	4.99626684
O	16.16329319	20.01043492	4.82085561
O	16.15911561	30.55907364	4.72112501
O	19.95129971	20.05910613	4.71660650
O	19.94923232	30.66798859	4.72493073
O	10.25944676	15.03348787	4.63454890
O	10.39512022	25.29865994	4.93342524
O	25.69577761	14.92229014	4.69500628
O	25.71030239	25.33713298	4.72228422
O	14.18030661	14.97702604	4.99243421
O	14.27551575	25.22325784	4.91577945
O	29.66834883	14.92645491	5.00493789
O	29.55196866	25.45505194	4.75624266
O	18.05710827	14.84443652	4.75414034
O	18.06363359	25.37124283	4.76119802
O	10.43879381	10.96678795	5.85589695
O	10.37584521	21.57130634	5.81534821
O	25.78640572	11.01248942	5.65057370
O	25.69187017	21.39931830	5.78354380
O	14.23265881	11.25616243	5.86105251
O	14.28362792	21.49558519	5.72693457
O	29.56466539	10.94674813	5.84043913
O	29.37920683	21.49502044	5.76982402
O	17.96148558	11.01412805	5.91904351
O	18.02612855	21.53285172	5.69715212
O	12.09678265	16.37559205	5.80678453
O	12.32618074	26.77446220	5.67387220
O	27.59378253	16.35955647	5.75967522
O	27.63032655	26.75550190	5.81549565
O	16.23499301	16.44067018	5.72373790
O	16.19185443	26.81109916	5.89536018
O	19.98506889	16.28353188	5.59318755
O	20.05760290	26.76720388	5.78161346
O	12.16069162	13.35844755	6.48147747
O	12.30124913	23.79711242	6.42023566
O	27.69595549	13.32473345	6.25384229
O	27.57062434	23.82297955	6.32335769
O	16.02534286	13.38876764	6.31115025
O	16.26318684	23.77616960	6.40412008
O	19.82262868	13.29555846	6.37934636
O	19.83154827	23.64521381	6.28877953
O	10.15937513	18.53804887	6.41391392
O	10.50146767	28.99694220	6.43243111
O	25.60754615	18.54613420	6.27404779
O	25.66260944	28.97050470	6.34393606
O	14.07674337	18.59264690	6.35323108
O	14.21981631	28.92332932	6.25839417
O	29.40520509	18.64061804	6.35163233
O	29.51431514	29.00953193	6.37014935
O	18.12840298	18.59383386	6.33510420
O	18.14168718	28.91625443	6.31924361
H	13.76349404	13.83497294	8.27379266
H	13.64135647	15.04832506	11.33629144
H	15.21469382	18.03673364	8.78041534
O	14.30388849	16.10252279	7.61447502
O	13.93893806	14.37073285	9.08745972
C	14.28179523	15.64523904	8.84645043
C	14.39228622	16.46808751	10.00158484
C	14.06878097	16.01811098	11.28459925
C	14.93762592	17.79640097	9.84401361
N	13.08923795	19.77766655	15.26356993
N	15.82670294	21.95829583	17.35609407
N	15.97986216	20.54203042	14.90386330
N	12.88479836	21.27891349	17.75187982
C	21.60488875	21.58555598	16.71349600
C	13.90880643	24.89375348	22.23299684
C	7.45658797	19.83287332	17.10550190
C	19.32646089	21.89554236	15.89182670
C	13.98680363	24.17128599	19.88341172
C	9.77407412	19.11025018	17.11436939
C	21.18114762	23.06890147	14.86207143
C	13.31370754	26.42671989	20.49716902
C	8.09042918	17.77668229	18.26085136
C	14.52098716	19.20970117	13.36283060
C	17.86527311	21.59919333	16.02521635
C	14.13684046	23.05997003	18.89562920
C	11.21308077	19.63528148	17.01229280
C	15.76692057	19.69119565	13.85448120
C	17.28225293	20.80811290	15.02253972
C	12.99216274	22.28768535	18.67529825
C	11.72182259	20.57532698	17.91386616
C	17.01362713	19.50127400	13.20581607
C	18.00100589	20.11648962	13.91057145
C	11.86955458	22.13648883	19.57556959
C	11.11535954	21.12855387	19.10047965
C	13.24776089	19.18630903	14.05133441
C	17.14388346	22.31855210	16.99662683
C	15.38856106	22.91783961	18.25771922
C	11.80446398	19.41980215	15.77054593
C	12.03558258	18.44668169	13.74052480
C	17.56697893	23.38674035	17.86200709
C	16.45773696	23.81044908	18.59489088
C	11.18793076	18.46220045	14.84853592
H	11.83014197	17.90122617	12.78944197
H	18.54012236	23.87116542	17.78338462
H	16.38921387	24.70231044	19.23164305
H	10.17113614	17.98567504	14.95883983
H	17.24686667	18.86918752	12.32372301
H	19.06617016	20.10969976	13.83627828
H	11.60673786	22.77067937	20.40027498
H	10.17934362	20.69055226	19.48968781
H	21.63403019	23.64225855	14.05870924
H	12.96994236	27.47241315	20.16535321
H	7.84175770	16.91506691	18.93231284
H	22.26124916	21.28271548	17.58016454
H	14.09564730	24.64843920	23.29946439
H	6.64361334	20.43698563	16.67429939
H	15.35452551	21.07039447	15.55250649
H	13.56467492	21.10846895	17.02015654
C	23.49000577	23.00592321	15.77180649
H	24.03878221	22.48079434	16.54220478
H	23.52687741	24.09220860	15.99284464
H	23.99103034	22.70465904	14.79578318
C	19.61070431	20.49874670	17.87208158
H	19.34819249	21.19438191	18.68074989
H	20.30649004	19.77860460	18.18256989
H	18.66576052	20.07632501	17.57887736
C	18.95743101	23.33710930	13.77653382
H	19.11533636	22.76092719	12.85341484
H	19.23342011	24.44220026	13.64287799
H	17.86619036	23.27008436	13.95173306
C	10.36144267	16.79694051	18.31199452
H	10.39754448	16.81145127	19.43209831
H	11.43195587	16.96042732	17.99447914
H	9.98653944	15.80828388	17.98701898
C	9.24542268	21.06033979	15.65698860
H	10.08786398	21.57651919	16.20178299
H	8.45924443	21.76440193	15.39010290
H	9.57201382	20.46435319	14.78627539
C	5.72538182	18.71119531	18.51013453
H	5.53093614	19.39850133	19.34327084
H	5.46349260	17.69059111	18.92792361
H	4.97630231	18.96186193	17.80855628
C	13.21029544	25.75858705	18.08327439
H	12.72461524	24.83646028	17.66903161
H	14.15710733	25.81529268	17.49465667
H	12.59657078	26.59159248	17.93553777
C	14.76189088	22.60295271	21.72622290
H	15.09390332	22.53524247	22.76463762
H	15.64839449	22.42930572	21.08570149
H	14.07917939	21.67200214	21.55865325
C	13.24796673	27.34572886	22.84832998
H	13.60846854	28.22592371	22.29090443
H	13.71870181	27.20374456	23.83869528
H	12.13228681	27.40230143	22.98035654
C	22.08567756	22.49884417	15.76406588
C	20.22415173	21.31850946	16.76627290
C	19.81347428	22.73041490	14.88797270
C	13.51864173	25.45459689	19.49321214
C	14.18913671	23.91319004	21.27647309
C	13.48233701	26.15546397	21.85895880
C	9.44504162	17.91910966	17.86591701
C	8.78571516	19.98176602	16.62132727
C	7.12921770	18.78484931	17.96779417
H	13.99690266	16.64082381	13.42557165
H	15.09480493	19.79276029	10.70655404
C	14.57115854	18.24106596	12.18256204
C	14.21934092	16.92746658	12.35998280
C	14.96676621	18.70213832	10.88103184

Ti O H C N 0
6-31G*
****

