%chk=f00012751.chk
%mem=24GB
%nproc=12
#p b3lyp/6-31G*

title

0 1
Ti	2.81187400	0.19704000	1.10336000
Ti	0.90594400	5.44057000	1.10336000
Ti	4.71781400	5.44057000	1.10336000
Ti	0.90594400	2.47241000	1.99114000
Ti	4.71781400	2.47241000	1.99114000
Ti	2.81187400	7.71594000	1.99115000
O	2.81187400	8.81302000	0.37332000
O	0.90594400	3.56949000	0.37332000
O	4.71781400	3.56949000	0.37332000
O	0.90594400	0.60134000	1.26110000
O	4.71781400	0.60134000	1.26110000
O	2.81187400	5.84486000	1.26111000
O	2.81187400	2.06812000	1.83340000
O	0.90594400	7.31164000	1.83340000
O	4.71781400	7.31164000	1.83340000
O	0.90594400	4.34349000	2.72118000
O	4.71781400	4.34349000	2.72118000
O	2.81187400	9.58701000	2.72118000
Ti	6.62374588	0.19704000	1.10336000
Ti	21.87123776	0.19704000	1.10336000
Ti	8.52968588	5.44057000	1.10336000
Ti	23.77717776	5.44057000	1.10336000
Ti	8.52968588	2.47241000	1.99114000
Ti	23.77717776	2.47241000	1.99114000
Ti	6.62374588	7.71594000	1.99115000
Ti	21.87123776	7.71594000	1.99115000
Ti	10.43561588	0.19704000	1.10336000
Ti	25.68310776	0.19704000	1.10336000
Ti	14.24749588	0.19704000	1.10336000
Ti	29.49498776	0.19704000	1.10336000
Ti	18.05936588	0.19704000	1.10336000
Ti	12.34155588	5.44057000	1.10336000
Ti	27.58904776	5.44057000	1.10336000
Ti	16.15343588	5.44057000	1.10336000
Ti	19.96530588	5.44057000	1.10336000
Ti	12.34155588	2.47241000	1.99114000
Ti	27.58904776	2.47241000	1.99114000
Ti	16.15343588	2.47241000	1.99114000
Ti	19.96530588	2.47241000	1.99114000
Ti	10.43561588	7.71594000	1.99115000
Ti	25.68310776	7.71594000	1.99115000
Ti	14.24749588	7.71594000	1.99115000
Ti	29.49498776	7.71594000	1.99115000
Ti	18.05936588	7.71594000	1.99115000
O	6.62374588	8.81302000	0.37332000
O	21.87123776	8.81302000	0.37332000
O	8.52968588	3.56949000	0.37332000
O	23.77717776	3.56949000	0.37332000
O	8.52968588	0.60134000	1.26110000
O	23.77717776	0.60134000	1.26110000
O	6.62374588	5.84486000	1.26111000
O	21.87123776	5.84486000	1.26111000
O	6.62374588	2.06812000	1.83340000
O	21.87123776	2.06812000	1.83340000
O	8.52968588	7.31164000	1.83340000
O	23.77717776	7.31164000	1.83340000
O	8.52968588	4.34349000	2.72118000
O	23.77717776	4.34349000	2.72118000
O	6.62374588	9.58701000	2.72118000
O	21.87123776	9.58701000	2.72118000
O	10.43561588	8.81302000	0.37332000
O	25.68310776	8.81302000	0.37332000
O	14.24749588	8.81302000	0.37332000
O	29.49498776	8.81302000	0.37332000
O	18.05936588	8.81302000	0.37332000
O	12.34155588	3.56949000	0.37332000
O	27.58904776	3.56949000	0.37332000
O	16.15343588	3.56949000	0.37332000
O	19.96530588	3.56949000	0.37332000
O	12.34155588	0.60134000	1.26110000
O	27.58904776	0.60134000	1.26110000
O	16.15343588	0.60134000	1.26110000
O	19.96530588	0.60134000	1.26110000
O	10.43561588	5.84486000	1.26111000
O	25.68310776	5.84486000	1.26111000
O	14.24749588	5.84486000	1.26111000
O	29.49498776	5.84486000	1.26111000
O	18.05936588	5.84486000	1.26111000
O	10.43561588	2.06812000	1.83340000
O	25.68310776	2.06812000	1.83340000
O	14.24749588	2.06812000	1.83340000
O	29.49498776	2.06812000	1.83340000
O	18.05936588	2.06812000	1.83340000
O	12.34155588	7.31164000	1.83340000
O	27.58904776	7.31164000	1.83340000
O	16.15343588	7.31164000	1.83340000
O	19.96530588	7.31164000	1.83340000
O	12.34155588	4.34349000	2.72118000
O	27.58904776	4.34349000	2.72118000
O	16.15343588	4.34349000	2.72118000
O	19.96530588	4.34349000	2.72118000
O	10.43561588	9.58701000	2.72118000
O	25.68310776	9.58701000	2.72118000
O	14.24749588	9.58701000	2.72118000
O	29.49498776	9.58701000	2.72118000
O	18.05936588	9.58701000	2.72118000
Ti	2.81187400	10.68408607	1.10336000
Ti	2.81187400	21.17113214	1.10336000
Ti	0.90594400	15.92761607	1.10336000
Ti	0.90594400	26.41466214	1.10336000
Ti	4.71781400	15.92761607	1.10336000
Ti	4.71781400	26.41466214	1.10336000
Ti	0.90594400	12.95945607	1.99114000
Ti	0.90594400	23.44650214	1.99114000
Ti	4.71781400	12.95945607	1.99114000
Ti	4.71781400	23.44650214	1.99114000
Ti	2.81187400	18.20298607	1.99115000
Ti	2.81187400	28.69003214	1.99115000
O	2.81187400	19.30006607	0.37332000
O	2.81187400	29.78711214	0.37332000
O	0.90594400	14.05653607	0.37332000
O	0.90594400	24.54358214	0.37332000
O	4.71781400	14.05653607	0.37332000
O	4.71781400	24.54358214	0.37332000
O	0.90594400	11.08838607	1.26110000
O	0.90594400	21.57543214	1.26110000
O	4.71781400	11.08838607	1.26110000
O	4.71781400	21.57543214	1.26110000
O	2.81187400	16.33190607	1.26111000
O	2.81187400	26.81895214	1.26111000
O	2.81187400	12.55516607	1.83340000
O	2.81187400	23.04221214	1.83340000
O	0.90594400	17.79868607	1.83340000
O	0.90594400	28.28573214	1.83340000
O	4.71781400	17.79868607	1.83340000
O	4.71781400	28.28573214	1.83340000
O	0.90594400	14.83053607	2.72118000
O	0.90594400	25.31758214	2.72118000
O	4.71781400	14.83053607	2.72118000
O	4.71781400	25.31758214	2.72118000
O	2.81187400	20.07405607	2.72118000
O	2.81187400	30.56110214	2.72118000
Ti	6.62374588	10.68408607	1.10336000
Ti	6.62374588	21.17113214	1.10336000
Ti	21.87123776	10.68408607	1.10336000
Ti	21.87123776	21.17113214	1.10336000
Ti	8.52968588	15.92761607	1.10336000
Ti	8.52968588	26.41466214	1.10336000
Ti	23.77717776	15.92761607	1.10336000
Ti	23.77717776	26.41466214	1.10336000
Ti	8.52968588	12.95945607	1.99114000
Ti	8.52968588	23.44650214	1.99114000
Ti	23.77717776	12.95945607	1.99114000
Ti	23.77717776	23.44650214	1.99114000
Ti	6.62374588	18.20298607	1.99115000
Ti	6.62374588	28.69003214	1.99115000
Ti	21.87123776	18.20298607	1.99115000
Ti	21.87123776	28.69003214	1.99115000
Ti	10.43561588	10.68408607	1.10336000
Ti	10.43561588	21.17113214	1.10336000
Ti	25.68310776	10.68408607	1.10336000
Ti	25.68310776	21.17113214	1.10336000
Ti	14.24749588	10.68408607	1.10336000
Ti	14.24749588	21.17113214	1.10336000
Ti	29.49498776	10.68408607	1.10336000
Ti	29.49498776	21.17113214	1.10336000
Ti	18.05936588	10.68408607	1.10336000
Ti	18.05936588	21.17113214	1.10336000
Ti	12.34155588	15.92761607	1.10336000
Ti	12.34155588	26.41466214	1.10336000
Ti	27.58904776	15.92761607	1.10336000
Ti	27.58904776	26.41466214	1.10336000
Ti	16.15343588	15.92761607	1.10336000
Ti	16.15343588	26.41466214	1.10336000
Ti	19.96530588	15.92761607	1.10336000
Ti	19.96530588	26.41466214	1.10336000
Ti	12.34155588	12.95945607	1.99114000
Ti	12.34155588	23.44650214	1.99114000
Ti	27.58904776	12.95945607	1.99114000
Ti	27.58904776	23.44650214	1.99114000
Ti	16.15343588	12.95945607	1.99114000
Ti	16.15343588	23.44650214	1.99114000
Ti	19.96530588	12.95945607	1.99114000
Ti	19.96530588	23.44650214	1.99114000
Ti	10.43561588	18.20298607	1.99115000
Ti	10.43561588	28.69003214	1.99115000
Ti	25.68310776	18.20298607	1.99115000
Ti	25.68310776	28.69003214	1.99115000
Ti	14.24749588	18.20298607	1.99115000
Ti	14.24749588	28.69003214	1.99115000
Ti	29.49498776	18.20298607	1.99115000
Ti	29.49498776	28.69003214	1.99115000
Ti	18.05936588	18.20298607	1.99115000
Ti	18.05936588	28.69003214	1.99115000
O	6.62374588	19.30006607	0.37332000
O	6.62374588	29.78711214	0.37332000
O	21.87123776	19.30006607	0.37332000
O	21.87123776	29.78711214	0.37332000
O	8.52968588	14.05653607	0.37332000
O	8.52968588	24.54358214	0.37332000
O	23.77717776	14.05653607	0.37332000
O	23.77717776	24.54358214	0.37332000
O	8.52968588	11.08838607	1.26110000
O	8.52968588	21.57543214	1.26110000
O	23.77717776	11.08838607	1.26110000
O	23.77717776	21.57543214	1.26110000
O	6.62374588	16.33190607	1.26111000
O	6.62374588	26.81895214	1.26111000
O	21.87123776	16.33190607	1.26111000
O	21.87123776	26.81895214	1.26111000
O	6.62374588	12.55516607	1.83340000
O	6.62374588	23.04221214	1.83340000
O	21.87123776	12.55516607	1.83340000
O	21.87123776	23.04221214	1.83340000
O	8.52968588	17.79868607	1.83340000
O	8.52968588	28.28573214	1.83340000
O	23.77717776	17.79868607	1.83340000
O	23.77717776	28.28573214	1.83340000
O	8.52968588	14.83053607	2.72118000
O	8.52968588	25.31758214	2.72118000
O	23.77717776	14.83053607	2.72118000
O	23.77717776	25.31758214	2.72118000
O	6.62374588	20.07405607	2.72118000
O	6.62374588	30.56110214	2.72118000
O	21.87123776	20.07405607	2.72118000
O	21.87123776	30.56110214	2.72118000
O	10.43561588	19.30006607	0.37332000
O	10.43561588	29.78711214	0.37332000
O	25.68310776	19.30006607	0.37332000
O	25.68310776	29.78711214	0.37332000
O	14.24749588	19.30006607	0.37332000
O	14.24749588	29.78711214	0.37332000
O	29.49498776	19.30006607	0.37332000
O	29.49498776	29.78711214	0.37332000
O	18.05936588	19.30006607	0.37332000
O	18.05936588	29.78711214	0.37332000
O	12.34155588	14.05653607	0.37332000
O	12.34155588	24.54358214	0.37332000
O	27.58904776	14.05653607	0.37332000
O	27.58904776	24.54358214	0.37332000
O	16.15343588	14.05653607	0.37332000
O	16.15343588	24.54358214	0.37332000
O	19.96530588	14.05653607	0.37332000
O	19.96530588	24.54358214	0.37332000
O	12.34155588	11.08838607	1.26110000
O	12.34155588	21.57543214	1.26110000
O	27.58904776	11.08838607	1.26110000
O	27.58904776	21.57543214	1.26110000
O	16.15343588	11.08838607	1.26110000
O	16.15343588	21.57543214	1.26110000
O	19.96530588	11.08838607	1.26110000
O	19.96530588	21.57543214	1.26110000
O	10.43561588	16.33190607	1.26111000
O	10.43561588	26.81895214	1.26111000
O	25.68310776	16.33190607	1.26111000
O	25.68310776	26.81895214	1.26111000
O	14.24749588	16.33190607	1.26111000
O	14.24749588	26.81895214	1.26111000
O	29.49498776	16.33190607	1.26111000
O	29.49498776	26.81895214	1.26111000
O	18.05936588	16.33190607	1.26111000
O	18.05936588	26.81895214	1.26111000
O	10.43561588	12.55516607	1.83340000
O	10.43561588	23.04221214	1.83340000
O	25.68310776	12.55516607	1.83340000
O	25.68310776	23.04221214	1.83340000
O	14.24749588	12.55516607	1.83340000
O	14.24749588	23.04221214	1.83340000
O	29.49498776	12.55516607	1.83340000
O	29.49498776	23.04221214	1.83340000
O	18.05936588	12.55516607	1.83340000
O	18.05936588	23.04221214	1.83340000
O	12.34155588	17.79868607	1.83340000
O	12.34155588	28.28573214	1.83340000
O	27.58904776	17.79868607	1.83340000
O	27.58904776	28.28573214	1.83340000
O	16.15343588	17.79868607	1.83340000
O	16.15343588	28.28573214	1.83340000
O	19.96530588	17.79868607	1.83340000
O	19.96530588	28.28573214	1.83340000
O	12.34155588	14.83053607	2.72118000
O	12.34155588	25.31758214	2.72118000
O	27.58904776	14.83053607	2.72118000
O	27.58904776	25.31758214	2.72118000
O	16.15343588	14.83053607	2.72118000
O	16.15343588	25.31758214	2.72118000
O	19.96530588	14.83053607	2.72118000
O	19.96530588	25.31758214	2.72118000
O	10.43561588	20.07405607	2.72118000
O	10.43561588	30.56110214	2.72118000
O	25.68310776	20.07405607	2.72118000
O	25.68310776	30.56110214	2.72118000
O	14.24749588	20.07405607	2.72118000
O	14.24749588	30.56110214	2.72118000
O	29.49498776	20.07405607	2.72118000
O	29.49498776	30.56110214	2.72118000
O	18.05936588	20.07405607	2.72118000
O	18.05936588	30.56110214	2.72118000
Ti	6.71782225	9.19762778	4.93353047
Ti	6.62729955	6.19502579	5.58095266
Ti	2.92178398	9.21006787	4.84059243
Ti	1.00355744	3.84075694	4.82038862
Ti	4.74469223	3.98619876	4.63048009
Ti	0.95511358	0.94619488	5.63203147
Ti	4.74951549	1.06161847	5.52398734
Ti	2.80024421	6.23735447	5.43782716
O	6.70366667	7.39038760	4.06755108
O	6.69213114	4.34554793	4.81892848
O	6.70012202	0.61066345	5.78019540
O	6.89976927	7.94538483	6.45749844
O	2.76842628	7.35602269	3.84788851
O	1.01374616	2.03611128	3.95953346
O	4.76203940	2.01156967	3.89863338
O	0.97946798	9.67399270	4.70606433
O	4.77128158	9.68929436	4.94156630
O	2.83609506	4.36176913	4.71470551
O	2.86862312	0.61394829	5.95931270
O	0.91338271	5.96590790	6.00893854
O	4.73768964	5.73269997	5.60438563
O	0.80010890	2.73631812	6.38841255
O	4.65299082	2.85659121	6.30191380
O	3.10279617	7.91889719	6.30822490
Ti	21.92719290	9.12539413	4.84061409
Ti	8.58253688	3.92254550	4.82752145
Ti	23.72075720	3.94287705	4.71118919
Ti	8.56789309	0.96136211	5.45381007
Ti	23.79517741	1.04992734	5.49043203
Ti	21.87933759	6.20817014	5.46998736
Ti	10.39486845	9.13094737	4.80910418
Ti	25.71576365	9.18868703	4.77831956
Ti	14.16695103	9.16785541	4.73703693
Ti	29.44649029	9.20157966	4.91731382
Ti	18.09502964	9.14369065	4.75564590
Ti	12.29053386	3.92883868	4.76146841
Ti	27.57550621	3.92719733	4.80305046
Ti	16.08761178	4.01382448	4.67258131
Ti	19.97120999	3.99294731	4.74043349
Ti	12.30451695	1.00275498	5.45918563
Ti	27.64843542	1.01387167	5.48477650
Ti	16.11325752	1.11840359	5.54567296
Ti	19.98938618	1.04702610	5.32921744
Ti	10.40091542	6.24436815	5.47297444
Ti	25.73872652	6.27124391	5.63072708
Ti	14.09945028	6.29653154	5.53563022
Ti	29.51231221	6.25751284	5.51234438
Ti	18.06821319	6.19315232	5.45873310
O	21.68164472	7.30701391	3.98603791
O	8.63812912	2.11901982	3.91854665
O	23.71982637	2.20410986	3.99267941
O	8.54563681	9.73764330	4.66790011
O	23.76722510	9.65011833	4.71158459
O	21.90039529	4.51217144	4.59793453
O	21.89168242	0.55630169	5.70663936
O	8.56852739	5.71167508	5.90478177
O	23.80486182	5.73227304	5.85635363
O	8.67017006	2.69935786	6.39978633
O	23.80866902	2.85430799	6.32502510
O	22.04717132	7.99698395	6.32442911
O	10.46370574	7.30121359	4.00833905
O	25.70279676	7.37714020	4.06294878
O	14.06037215	7.31523070	3.95218513
O	29.41904010	7.31291341	3.93394241
O	17.96956179	7.17260194	3.96438731
O	12.47571100	2.08875359	3.85254252
O	27.58697007	2.12337912	3.92832756
O	15.97533017	2.13387884	3.94830872
O	20.07446092	2.14095201	3.83438695
O	12.30341579	9.58140380	5.07531811
O	27.58039718	9.65526657	4.80664625
O	16.14065569	9.50836735	4.79295305
O	20.00049873	9.62005077	4.70665658
O	10.41891322	4.36055776	4.69895454
O	25.73369848	4.26758974	4.91190166
O	14.16832788	4.52894243	4.58127534
O	29.52928071	4.37818373	4.89218548
O	18.06878128	4.32517765	4.69037097
O	10.45680719	0.56486526	5.79883404
O	25.75673584	0.58240055	5.87453462
O	14.20703075	0.63759203	5.93319409
O	29.46638911	0.41332792	5.74985950
O	18.09250324	0.63821023	5.63145546
O	12.25332105	5.79007022	5.78390681
O	27.60921744	5.79412243	5.85633716
O	16.06424560	5.82295352	5.81283512
O	20.02181550	5.70202819	5.80201665
O	12.32994279	2.71949362	6.30315171
O	27.91381308	2.74236214	6.38472282
O	15.91985129	2.83188019	6.33343396
O	19.97426843	2.76181969	6.29201807
O	10.36368105	8.04508308	6.51174554
O	25.65639399	8.02380119	6.40113540
O	14.34295166	8.10331878	6.35575242
O	29.44588306	8.05401708	6.43903345
O	18.20283665	7.89538138	6.32290023
Ti	6.55962362	19.75631707	4.69404246
Ti	6.64762126	30.21954688	4.76698746
Ti	6.68645259	16.84781977	5.46355359
Ti	6.65762626	27.32268394	5.61866980
Ti	2.74283999	19.68075700	4.70247141
Ti	2.78082466	30.22328107	4.67747363
Ti	0.87913532	14.53442175	4.73301636
Ti	0.84229310	24.95918432	4.76008751
Ti	4.72041109	14.50977977	4.77038362
Ti	4.76823333	24.96043008	4.88737145
Ti	0.87878012	11.58869011	5.55057465
Ti	0.88734843	21.98926140	5.44399627
Ti	4.78972092	11.60757298	5.57791218
Ti	4.58727101	22.00791844	5.39702735
Ti	2.80523319	16.76866707	5.40501322
Ti	2.82098370	27.33534898	5.49381575
O	6.80982075	17.78508761	3.88134086
O	6.59067305	28.36426139	3.97304730
O	6.67455630	14.87771306	4.80267861
O	6.62209808	25.49991309	4.74973080
O	6.69635540	10.96365532	5.92396862
O	6.45197894	21.51951728	5.70224880
O	6.53324964	18.66050574	6.29836352
O	6.66220683	29.10292495	6.35453143
O	2.80992988	17.89367942	3.97595274
O	2.85275151	28.36087267	3.95722871
O	0.74717769	12.48192821	3.88124339
O	0.97581665	22.97680945	3.92389722
O	4.88248077	12.55097620	3.92458516
O	4.47542333	23.15108567	3.86952146
O	0.89188573	20.05778867	4.68323450
O	0.88787534	30.52303588	4.88583049
O	4.68177298	20.09407817	4.70340977
O	4.77929941	30.73276376	4.80416733
O	2.85924265	14.86224119	4.69628809
O	2.74711690	25.42933248	4.95752452
O	2.81286861	11.06086693	5.77952944
O	2.73823767	21.34998168	5.91063671
O	0.93130744	16.34644112	5.64214332
O	0.77772781	26.74971731	5.69132905
O	4.75577716	16.42498409	5.59181593
O	4.70124975	26.86045713	5.78513064
O	0.99329311	13.36649303	6.27041417
O	0.94452292	23.69606168	6.30220947
O	4.74568995	13.33817965	6.38242071
O	4.60660979	23.70292857	6.45063593
O	2.83029405	18.47717506	6.40474225
O	2.83008549	29.10950691	6.33696362
Ti	21.82917489	19.65109289	4.70501477
Ti	21.84889717	30.16304568	4.75051950
Ti	8.54068276	14.49605101	4.71048480
Ti	8.46285349	24.94662164	4.79671464
Ti	23.76622199	14.49690761	4.73638511
Ti	23.82038491	24.97779046	4.84079835
Ti	8.61295522	11.57941609	5.44912032
Ti	8.36679611	22.09934741	5.43546269
Ti	23.77731647	11.51809444	5.45519972
Ti	23.72107805	22.03649679	5.47368972
Ti	21.97650564	16.76264430	5.53400486
Ti	21.83651387	27.27144224	5.48634348
Ti	10.45460709	19.69336337	4.69061765
Ti	10.47526311	30.18185898	4.74173228
Ti	25.65876203	19.74761605	4.70822743
Ti	25.64935926	30.15207224	4.75203847
Ti	14.23637291	19.70391028	4.81006043
Ti	14.37351512	30.11891024	4.71322354
Ti	29.49900554	19.67794804	4.79403317
Ti	29.42219131	30.12373285	4.69503307
Ti	17.98431719	19.63502489	4.77978260
Ti	18.07519938	30.15258588	4.77317910
Ti	12.40131685	14.46285082	4.75297360
Ti	12.37735097	25.04330948	4.75191959
Ti	27.59029489	14.48257636	4.74829709
Ti	27.46192167	24.88685258	4.72374412
Ti	16.23570211	14.45825981	4.83768573
Ti	16.16493161	24.98290787	4.71103865
Ti	20.10144287	14.47869961	4.68636539
Ti	19.97473961	25.01314503	4.72935197
Ti	12.31155286	11.55367895	5.53424096
Ti	12.22963563	22.00651409	5.48802091
Ti	27.55759297	11.54879352	5.54339561
Ti	27.58583915	22.08560883	5.60187095
Ti	16.21712908	11.50761567	5.49377700
Ti	16.04897532	22.09347834	5.55066793
Ti	20.07786744	11.40217078	5.42998357
Ti	19.86875929	22.07879731	5.46977936
Ti	10.40140938	16.73481160	5.43184747
Ti	10.43905834	27.30028847	5.53139384
Ti	25.81921423	16.80823029	5.40072976
Ti	25.76207845	27.26083146	5.52927254
Ti	14.24918094	16.78142248	5.78641931
Ti	14.25147849	27.28864432	5.51784607
Ti	29.48745573	16.77697052	5.52884977
Ti	29.44754850	27.21260865	5.54181350
Ti	18.15692471	16.71329457	5.50254630
Ti	18.07895217	27.26688954	5.57212472
O	21.96776772	17.73701974	3.87623153
O	21.61093850	28.22471103	3.88818894
O	8.68375263	12.56658488	3.94308715
O	8.43774839	23.17216584	3.93744077
O	23.63779005	12.56155187	3.92858144
O	23.81255853	23.07354318	3.93142842
O	8.50250042	20.12300648	4.85156935
O	8.53606893	30.69387039	4.67158956
O	23.77858434	20.16804117	4.73112153
O	23.69500947	30.70123386	4.76997062
O	21.97306549	14.86345841	4.81486683
O	21.93576273	25.41815564	4.84874420
O	21.87679239	10.95485756	5.77096649
O	21.85242095	21.62994048	5.49924267
O	8.56524382	16.30939693	5.76275428
O	8.55861147	26.95707758	5.74234741
O	23.90001591	16.25213050	5.68749799
O	23.79630238	26.74729478	5.97523902
O	8.62505269	13.36512240	6.40602816
O	8.33055611	23.78982012	6.30197938
O	23.85263414	13.28005959	6.39543706
O	23.80499906	23.77949579	6.46491035
O	22.12937575	18.63060123	6.22489270
O	21.87427556	28.97967609	6.31289693
O	10.36286576	17.81507544	3.87252771
O	10.39228366	28.24827121	3.87256485
O	25.83176947	17.80011729	3.86451137
O	25.89326552	28.30154128	3.91977406
O	14.12678678	17.84335473	4.02891774
O	14.35034484	28.25344144	3.90581029
O	29.39782782	17.79973141	4.02295182
O	29.51262235	28.28648732	3.96296521
O	18.11156795	17.80855269	3.97474480
O	18.01009039	28.29226468	3.96727806
O	12.50524847	12.59145098	3.93714420
O	12.25375569	23.01828714	3.93034634
O	27.42249345	12.64102033	3.97516791
O	27.64726724	23.07712232	3.89122030
O	16.37706938	12.60105088	3.92841194
O	16.06040312	23.15126860	3.95195645
O	19.95920286	12.53687031	3.92862314
O	19.93319633	23.20559109	3.90730450
O	12.33112429	20.07030073	4.93333187
O	12.46472548	30.60016544	4.77681682
O	27.61331022	20.13358339	4.71796581
O	27.56237766	30.73794488	4.56522763
O	16.12369267	20.16428747	4.75424180
O	16.13482499	30.75994753	4.67731466
O	19.87565242	20.14251424	4.78438081
O	19.89589851	30.59329180	4.90320779
O	10.48660894	14.74288339	4.75681574
O	10.41622332	25.34161561	4.72559913
O	25.71052007	14.89333340	4.53854155
O	25.63020351	25.42556547	4.67630915
O	14.29802316	14.87891025	4.85782078
O	14.25530934	25.41524518	4.71006658
O	29.47321542	14.91667562	4.79302481
O	29.42712725	25.35565371	4.67972749
O	18.16379408	14.81470256	4.77806396
O	18.05698327	25.47355154	4.85187375
O	10.41111791	11.07988048	5.73226482
O	10.26618719	21.59454308	5.62812559
O	25.71105706	10.91512800	5.81647678
O	25.71228522	21.46658790	5.77024205
O	14.28825791	11.03824251	5.75352836
O	14.17127810	21.56105797	5.80826024
O	29.46874641	11.04310222	5.84090222
O	29.54259723	21.63383014	5.73031594
O	18.15921195	10.90817467	5.64557137
O	17.93519162	21.61790512	5.57248646
O	12.31368760	16.27503653	5.55450253
O	12.29347070	26.84478997	5.62118325
O	27.60249057	16.23986325	5.97277235
O	27.60436529	26.70868209	5.64256706
O	16.30621359	16.37172563	5.64187056
O	16.13357812	26.77741280	5.65191921
O	20.06075383	16.22663109	5.89384136
O	19.99560941	26.78429660	5.84442226
O	12.41605727	13.34767466	6.34451247
O	12.14656450	23.74375513	6.36542850
O	27.47951052	13.30909038	6.28825213
O	27.49961633	23.70611591	6.41325602
O	16.16532298	13.20094846	6.38695769
O	16.11249769	23.83878286	6.35536858
O	19.95738215	13.27447025	6.25639066
O	20.05282217	23.77286317	6.33069375
O	10.44668938	18.44118659	6.28659190
O	10.48769552	29.07432448	6.29130836
O	25.60645024	18.56256859	6.34264965
O	25.75477300	29.09604330	6.39815211
O	14.42127384	18.60779440	6.32246518
O	14.35024964	29.07217824	6.43054377
O	29.31433145	18.59966446	6.34421860
O	29.32545791	29.07941083	6.30328691
O	18.12416087	18.47493442	6.52728502
O	17.83906523	29.00590139	6.32884318
H	14.47243256	14.04319812	8.39424411
H	15.22817793	15.09808936	11.12713019
H	14.42682524	18.64135441	8.80996623
O	14.37273374	16.30318879	7.54057369
O	14.78121592	14.67992179	9.07410362
C	14.68241028	15.93229275	8.78708025
C	14.88421963	16.82035435	9.92623919
C	15.20758804	16.21404817	11.11534822
C	14.71675277	18.21055033	9.81200169
N	13.75265695	19.42116764	15.52850497
N	15.30528745	22.82585873	17.26460251
N	15.76492378	21.18517504	14.68539346
N	13.10752797	21.03364318	18.11415468
C	20.52361171	24.38660694	15.35194633
C	14.12897845	24.41190985	22.86279281
C	8.31482491	17.63709141	16.90132596
C	18.14889819	24.11369114	15.17049492
C	13.55522091	23.90525895	20.52089525
C	10.62017669	18.24458843	17.45756947
C	19.16513944	26.09171391	14.22533982
C	12.25220563	25.56720990	21.69053402
C	9.49185394	16.51906656	18.70055092
C	15.04091596	19.18741266	13.41852368
C	16.96042972	23.24012575	15.47278101
C	13.88764705	23.03395487	19.32196024
C	11.86526214	19.04235209	17.21247798
C	15.83286448	20.37247985	13.58943177
C	16.65512626	22.21506866	14.58137521
C	13.10243701	21.87164407	19.18350128
C	12.08996595	20.12877842	18.13681230
C	16.70597479	20.98655389	12.64746663
C	17.16423339	22.17942773	13.23846104
C	11.94546393	21.48949040	19.99259323
C	11.37352255	20.44830732	19.35510202
C	14.07611673	18.78809992	14.35688255
C	16.41484021	23.48255690	16.75599662
C	14.94333406	23.40978293	18.44541884
C	12.71042008	18.69814520	16.12845735
C	13.22699580	17.59428797	14.21586976
C	16.79410534	24.49362239	17.67439224
C	15.88020511	24.50140215	18.71916130
C	12.43238164	17.55807343	15.32430386
H	13.29353311	16.82843371	13.43542357
H	17.60559134	25.24580645	17.52494305
H	15.80885457	25.19173144	19.52875216
H	11.65261083	16.84708724	15.60099395
H	16.95636193	20.58514815	11.61079026
H	17.88320781	22.87833648	12.84593591
H	11.66604079	21.92157735	20.96579057
H	10.45922416	19.91888730	19.70062222
H	19.05343046	27.11761432	13.80215152
H	11.40127245	26.26306629	21.78680843
H	9.49706971	15.70964913	19.40703365
H	21.48972581	24.10165461	15.74237223
H	14.67731365	24.28697006	23.78983963
H	7.49557728	17.70621047	16.11953106
H	15.22680978	20.93784853	15.54116339
H	13.90195768	20.86920637	17.45057822
C	21.60237799	26.44847844	14.34180026
H	21.86187077	26.28681685	13.30683152
H	22.44704425	26.13978372	14.93218946
H	21.40486555	27.51652406	14.55701392
C	19.50419147	22.41550756	16.38148193
H	18.94685952	21.57998519	15.91571210
H	19.03552949	22.45475426	17.36025477
H	20.52703996	22.04666303	16.63481144
C	16.79850696	25.50681533	13.66470991
H	16.58531549	24.61186516	13.02946982
H	16.84597553	26.37424458	12.97370890
H	15.87498022	25.69960026	14.27595403
C	11.91479722	16.79954285	19.01132297
H	11.79821499	16.34059860	19.99613139
H	12.49608547	17.73099199	19.10490150
H	12.46975919	16.04391479	18.42596802
C	9.45474001	19.44679882	15.58656932
H	8.51540297	19.55501046	15.05254046
H	10.26706470	19.21252191	14.88338202
H	9.74324661	20.39134431	16.08925597
C	7.16160381	15.85871799	18.31125917
H	6.58174765	16.18419626	19.16425441
H	7.50404182	14.87403813	18.59404751
H	6.42542404	15.70863493	17.51545119
C	11.64332230	24.94684004	19.30029547
H	10.58443334	24.76914578	19.46891455
H	11.93188461	24.29357227	18.46874870
H	11.80689135	25.94177943	18.88322652
C	15.41305907	22.69617854	21.67712142
H	15.11420207	21.83527218	21.06705997
H	15.66962714	22.50756730	22.71178909
H	16.28503247	23.05874315	21.11069955
C	12.70538148	26.17270701	24.06804977
H	13.56065158	26.24913448	24.77842013
H	11.89812447	25.61652941	24.57253382
H	12.42672643	27.23475239	23.85507727
C	20.41957235	25.62442813	14.69079080
C	19.36967206	23.64458508	15.63052831
C	18.06607043	25.27268184	14.36932839
C	12.46969310	24.81380824	20.55272264
C	14.35806340	23.71622127	21.68371420
C	13.05814769	25.38982481	22.86753872
C	10.65056382	17.20306134	18.38427096
C	9.47067876	18.39975425	16.69170183
C	8.31050428	16.73829732	17.95157040
H	15.44792335	16.65330132	13.25509526
H	14.87849321	20.06639287	10.74627030
C	15.16357905	18.42648564	12.17478356
C	15.30146147	17.00797125	12.24535254
C	14.92582898	19.00465020	10.90462715

Ti O H C N 0
6-31G*
****

