%chk=f00010952.chk
%mem=24GB
%nproc=12
#p b3lyp/6-31G*

title

0 1
Ti	2.81187400	0.19704000	1.10336000
Ti	0.90594400	5.44057000	1.10336000
Ti	4.71781400	5.44057000	1.10336000
Ti	0.90594400	2.47241000	1.99114000
Ti	4.71781400	2.47241000	1.99114000
Ti	2.81187400	7.71594000	1.99115000
O	2.81187400	8.81302000	0.37332000
O	0.90594400	3.56949000	0.37332000
O	4.71781400	3.56949000	0.37332000
O	0.90594400	0.60134000	1.26110000
O	4.71781400	0.60134000	1.26110000
O	2.81187400	5.84486000	1.26111000
O	2.81187400	2.06812000	1.83340000
O	0.90594400	7.31164000	1.83340000
O	4.71781400	7.31164000	1.83340000
O	0.90594400	4.34349000	2.72118000
O	4.71781400	4.34349000	2.72118000
O	2.81187400	9.58701000	2.72118000
Ti	6.62374588	0.19704000	1.10336000
Ti	21.87123776	0.19704000	1.10336000
Ti	8.52968588	5.44057000	1.10336000
Ti	23.77717776	5.44057000	1.10336000
Ti	8.52968588	2.47241000	1.99114000
Ti	23.77717776	2.47241000	1.99114000
Ti	6.62374588	7.71594000	1.99115000
Ti	21.87123776	7.71594000	1.99115000
Ti	10.43561588	0.19704000	1.10336000
Ti	25.68310776	0.19704000	1.10336000
Ti	14.24749588	0.19704000	1.10336000
Ti	29.49498776	0.19704000	1.10336000
Ti	18.05936588	0.19704000	1.10336000
Ti	12.34155588	5.44057000	1.10336000
Ti	27.58904776	5.44057000	1.10336000
Ti	16.15343588	5.44057000	1.10336000
Ti	19.96530588	5.44057000	1.10336000
Ti	12.34155588	2.47241000	1.99114000
Ti	27.58904776	2.47241000	1.99114000
Ti	16.15343588	2.47241000	1.99114000
Ti	19.96530588	2.47241000	1.99114000
Ti	10.43561588	7.71594000	1.99115000
Ti	25.68310776	7.71594000	1.99115000
Ti	14.24749588	7.71594000	1.99115000
Ti	29.49498776	7.71594000	1.99115000
Ti	18.05936588	7.71594000	1.99115000
O	6.62374588	8.81302000	0.37332000
O	21.87123776	8.81302000	0.37332000
O	8.52968588	3.56949000	0.37332000
O	23.77717776	3.56949000	0.37332000
O	8.52968588	0.60134000	1.26110000
O	23.77717776	0.60134000	1.26110000
O	6.62374588	5.84486000	1.26111000
O	21.87123776	5.84486000	1.26111000
O	6.62374588	2.06812000	1.83340000
O	21.87123776	2.06812000	1.83340000
O	8.52968588	7.31164000	1.83340000
O	23.77717776	7.31164000	1.83340000
O	8.52968588	4.34349000	2.72118000
O	23.77717776	4.34349000	2.72118000
O	6.62374588	9.58701000	2.72118000
O	21.87123776	9.58701000	2.72118000
O	10.43561588	8.81302000	0.37332000
O	25.68310776	8.81302000	0.37332000
O	14.24749588	8.81302000	0.37332000
O	29.49498776	8.81302000	0.37332000
O	18.05936588	8.81302000	0.37332000
O	12.34155588	3.56949000	0.37332000
O	27.58904776	3.56949000	0.37332000
O	16.15343588	3.56949000	0.37332000
O	19.96530588	3.56949000	0.37332000
O	12.34155588	0.60134000	1.26110000
O	27.58904776	0.60134000	1.26110000
O	16.15343588	0.60134000	1.26110000
O	19.96530588	0.60134000	1.26110000
O	10.43561588	5.84486000	1.26111000
O	25.68310776	5.84486000	1.26111000
O	14.24749588	5.84486000	1.26111000
O	29.49498776	5.84486000	1.26111000
O	18.05936588	5.84486000	1.26111000
O	10.43561588	2.06812000	1.83340000
O	25.68310776	2.06812000	1.83340000
O	14.24749588	2.06812000	1.83340000
O	29.49498776	2.06812000	1.83340000
O	18.05936588	2.06812000	1.83340000
O	12.34155588	7.31164000	1.83340000
O	27.58904776	7.31164000	1.83340000
O	16.15343588	7.31164000	1.83340000
O	19.96530588	7.31164000	1.83340000
O	12.34155588	4.34349000	2.72118000
O	27.58904776	4.34349000	2.72118000
O	16.15343588	4.34349000	2.72118000
O	19.96530588	4.34349000	2.72118000
O	10.43561588	9.58701000	2.72118000
O	25.68310776	9.58701000	2.72118000
O	14.24749588	9.58701000	2.72118000
O	29.49498776	9.58701000	2.72118000
O	18.05936588	9.58701000	2.72118000
Ti	2.81187400	10.68408607	1.10336000
Ti	2.81187400	21.17113214	1.10336000
Ti	0.90594400	15.92761607	1.10336000
Ti	0.90594400	26.41466214	1.10336000
Ti	4.71781400	15.92761607	1.10336000
Ti	4.71781400	26.41466214	1.10336000
Ti	0.90594400	12.95945607	1.99114000
Ti	0.90594400	23.44650214	1.99114000
Ti	4.71781400	12.95945607	1.99114000
Ti	4.71781400	23.44650214	1.99114000
Ti	2.81187400	18.20298607	1.99115000
Ti	2.81187400	28.69003214	1.99115000
O	2.81187400	19.30006607	0.37332000
O	2.81187400	29.78711214	0.37332000
O	0.90594400	14.05653607	0.37332000
O	0.90594400	24.54358214	0.37332000
O	4.71781400	14.05653607	0.37332000
O	4.71781400	24.54358214	0.37332000
O	0.90594400	11.08838607	1.26110000
O	0.90594400	21.57543214	1.26110000
O	4.71781400	11.08838607	1.26110000
O	4.71781400	21.57543214	1.26110000
O	2.81187400	16.33190607	1.26111000
O	2.81187400	26.81895214	1.26111000
O	2.81187400	12.55516607	1.83340000
O	2.81187400	23.04221214	1.83340000
O	0.90594400	17.79868607	1.83340000
O	0.90594400	28.28573214	1.83340000
O	4.71781400	17.79868607	1.83340000
O	4.71781400	28.28573214	1.83340000
O	0.90594400	14.83053607	2.72118000
O	0.90594400	25.31758214	2.72118000
O	4.71781400	14.83053607	2.72118000
O	4.71781400	25.31758214	2.72118000
O	2.81187400	20.07405607	2.72118000
O	2.81187400	30.56110214	2.72118000
Ti	6.62374588	10.68408607	1.10336000
Ti	6.62374588	21.17113214	1.10336000
Ti	21.87123776	10.68408607	1.10336000
Ti	21.87123776	21.17113214	1.10336000
Ti	8.52968588	15.92761607	1.10336000
Ti	8.52968588	26.41466214	1.10336000
Ti	23.77717776	15.92761607	1.10336000
Ti	23.77717776	26.41466214	1.10336000
Ti	8.52968588	12.95945607	1.99114000
Ti	8.52968588	23.44650214	1.99114000
Ti	23.77717776	12.95945607	1.99114000
Ti	23.77717776	23.44650214	1.99114000
Ti	6.62374588	18.20298607	1.99115000
Ti	6.62374588	28.69003214	1.99115000
Ti	21.87123776	18.20298607	1.99115000
Ti	21.87123776	28.69003214	1.99115000
Ti	10.43561588	10.68408607	1.10336000
Ti	10.43561588	21.17113214	1.10336000
Ti	25.68310776	10.68408607	1.10336000
Ti	25.68310776	21.17113214	1.10336000
Ti	14.24749588	10.68408607	1.10336000
Ti	14.24749588	21.17113214	1.10336000
Ti	29.49498776	10.68408607	1.10336000
Ti	29.49498776	21.17113214	1.10336000
Ti	18.05936588	10.68408607	1.10336000
Ti	18.05936588	21.17113214	1.10336000
Ti	12.34155588	15.92761607	1.10336000
Ti	12.34155588	26.41466214	1.10336000
Ti	27.58904776	15.92761607	1.10336000
Ti	27.58904776	26.41466214	1.10336000
Ti	16.15343588	15.92761607	1.10336000
Ti	16.15343588	26.41466214	1.10336000
Ti	19.96530588	15.92761607	1.10336000
Ti	19.96530588	26.41466214	1.10336000
Ti	12.34155588	12.95945607	1.99114000
Ti	12.34155588	23.44650214	1.99114000
Ti	27.58904776	12.95945607	1.99114000
Ti	27.58904776	23.44650214	1.99114000
Ti	16.15343588	12.95945607	1.99114000
Ti	16.15343588	23.44650214	1.99114000
Ti	19.96530588	12.95945607	1.99114000
Ti	19.96530588	23.44650214	1.99114000
Ti	10.43561588	18.20298607	1.99115000
Ti	10.43561588	28.69003214	1.99115000
Ti	25.68310776	18.20298607	1.99115000
Ti	25.68310776	28.69003214	1.99115000
Ti	14.24749588	18.20298607	1.99115000
Ti	14.24749588	28.69003214	1.99115000
Ti	29.49498776	18.20298607	1.99115000
Ti	29.49498776	28.69003214	1.99115000
Ti	18.05936588	18.20298607	1.99115000
Ti	18.05936588	28.69003214	1.99115000
O	6.62374588	19.30006607	0.37332000
O	6.62374588	29.78711214	0.37332000
O	21.87123776	19.30006607	0.37332000
O	21.87123776	29.78711214	0.37332000
O	8.52968588	14.05653607	0.37332000
O	8.52968588	24.54358214	0.37332000
O	23.77717776	14.05653607	0.37332000
O	23.77717776	24.54358214	0.37332000
O	8.52968588	11.08838607	1.26110000
O	8.52968588	21.57543214	1.26110000
O	23.77717776	11.08838607	1.26110000
O	23.77717776	21.57543214	1.26110000
O	6.62374588	16.33190607	1.26111000
O	6.62374588	26.81895214	1.26111000
O	21.87123776	16.33190607	1.26111000
O	21.87123776	26.81895214	1.26111000
O	6.62374588	12.55516607	1.83340000
O	6.62374588	23.04221214	1.83340000
O	21.87123776	12.55516607	1.83340000
O	21.87123776	23.04221214	1.83340000
O	8.52968588	17.79868607	1.83340000
O	8.52968588	28.28573214	1.83340000
O	23.77717776	17.79868607	1.83340000
O	23.77717776	28.28573214	1.83340000
O	8.52968588	14.83053607	2.72118000
O	8.52968588	25.31758214	2.72118000
O	23.77717776	14.83053607	2.72118000
O	23.77717776	25.31758214	2.72118000
O	6.62374588	20.07405607	2.72118000
O	6.62374588	30.56110214	2.72118000
O	21.87123776	20.07405607	2.72118000
O	21.87123776	30.56110214	2.72118000
O	10.43561588	19.30006607	0.37332000
O	10.43561588	29.78711214	0.37332000
O	25.68310776	19.30006607	0.37332000
O	25.68310776	29.78711214	0.37332000
O	14.24749588	19.30006607	0.37332000
O	14.24749588	29.78711214	0.37332000
O	29.49498776	19.30006607	0.37332000
O	29.49498776	29.78711214	0.37332000
O	18.05936588	19.30006607	0.37332000
O	18.05936588	29.78711214	0.37332000
O	12.34155588	14.05653607	0.37332000
O	12.34155588	24.54358214	0.37332000
O	27.58904776	14.05653607	0.37332000
O	27.58904776	24.54358214	0.37332000
O	16.15343588	14.05653607	0.37332000
O	16.15343588	24.54358214	0.37332000
O	19.96530588	14.05653607	0.37332000
O	19.96530588	24.54358214	0.37332000
O	12.34155588	11.08838607	1.26110000
O	12.34155588	21.57543214	1.26110000
O	27.58904776	11.08838607	1.26110000
O	27.58904776	21.57543214	1.26110000
O	16.15343588	11.08838607	1.26110000
O	16.15343588	21.57543214	1.26110000
O	19.96530588	11.08838607	1.26110000
O	19.96530588	21.57543214	1.26110000
O	10.43561588	16.33190607	1.26111000
O	10.43561588	26.81895214	1.26111000
O	25.68310776	16.33190607	1.26111000
O	25.68310776	26.81895214	1.26111000
O	14.24749588	16.33190607	1.26111000
O	14.24749588	26.81895214	1.26111000
O	29.49498776	16.33190607	1.26111000
O	29.49498776	26.81895214	1.26111000
O	18.05936588	16.33190607	1.26111000
O	18.05936588	26.81895214	1.26111000
O	10.43561588	12.55516607	1.83340000
O	10.43561588	23.04221214	1.83340000
O	25.68310776	12.55516607	1.83340000
O	25.68310776	23.04221214	1.83340000
O	14.24749588	12.55516607	1.83340000
O	14.24749588	23.04221214	1.83340000
O	29.49498776	12.55516607	1.83340000
O	29.49498776	23.04221214	1.83340000
O	18.05936588	12.55516607	1.83340000
O	18.05936588	23.04221214	1.83340000
O	12.34155588	17.79868607	1.83340000
O	12.34155588	28.28573214	1.83340000
O	27.58904776	17.79868607	1.83340000
O	27.58904776	28.28573214	1.83340000
O	16.15343588	17.79868607	1.83340000
O	16.15343588	28.28573214	1.83340000
O	19.96530588	17.79868607	1.83340000
O	19.96530588	28.28573214	1.83340000
O	12.34155588	14.83053607	2.72118000
O	12.34155588	25.31758214	2.72118000
O	27.58904776	14.83053607	2.72118000
O	27.58904776	25.31758214	2.72118000
O	16.15343588	14.83053607	2.72118000
O	16.15343588	25.31758214	2.72118000
O	19.96530588	14.83053607	2.72118000
O	19.96530588	25.31758214	2.72118000
O	10.43561588	20.07405607	2.72118000
O	10.43561588	30.56110214	2.72118000
O	25.68310776	20.07405607	2.72118000
O	25.68310776	30.56110214	2.72118000
O	14.24749588	20.07405607	2.72118000
O	14.24749588	30.56110214	2.72118000
O	29.49498776	20.07405607	2.72118000
O	29.49498776	30.56110214	2.72118000
O	18.05936588	20.07405607	2.72118000
O	18.05936588	30.56110214	2.72118000
Ti	6.59487870	9.24731558	4.79865359
Ti	6.68897834	6.33882052	5.55340363
Ti	2.86539593	9.14766869	4.81109205
Ti	0.83599316	3.96939653	4.78856460
Ti	4.67962396	4.07276219	4.64457941
Ti	0.90031724	1.06168188	5.50346817
Ti	4.74324458	1.08835976	5.36629550
Ti	2.84078653	6.22327505	5.56897529
O	6.59596082	7.32021548	3.93055126
O	6.65181833	4.37288273	4.90904978
O	6.59286993	0.47617495	5.74189104
O	6.74398371	8.11513276	6.45365966
O	2.60923458	7.36539340	3.94170322
O	0.98660188	2.14707411	3.95161729
O	4.71044610	2.10546033	3.87894534
O	0.93219214	9.62069615	4.83311578
O	4.69232846	9.65376161	4.80887496
O	2.87098797	4.39094149	5.01141798
O	2.84167880	0.62745169	5.80680226
O	0.85297177	5.80138477	5.77755472
O	4.75437831	5.79893230	5.68576431
O	0.68599472	2.70421779	6.31489231
O	4.89914633	2.73668438	6.37061604
O	2.66067098	7.95302596	6.42500450
Ti	21.88952563	9.29287025	4.70884790
Ti	8.57955907	3.97123783	4.70884509
Ti	23.69471843	3.92657599	4.70035668
Ti	8.51581095	1.03744380	5.54574128
Ti	23.87230432	0.99962939	5.46735920
Ti	21.81567699	6.39600400	5.47819779
Ti	10.54058465	9.21511346	4.64009007
Ti	25.72228416	9.19666386	4.79045662
Ti	14.24194681	9.24073856	4.88870293
Ti	29.53441177	9.23193832	4.70577321
Ti	18.09658097	9.26758118	4.70831525
Ti	12.38708060	3.95603089	4.88794479
Ti	27.54283173	3.97543320	4.75036224
Ti	16.13362494	4.02353627	4.89319037
Ti	19.95238755	3.93593426	4.73889137
Ti	12.40426511	1.04066934	5.55897285
Ti	27.68651911	1.03627321	5.52362775
Ti	16.18874369	1.03544300	5.47736148
Ti	20.00195551	0.97739842	5.57503473
Ti	10.53191984	6.29078953	5.38724081
Ti	25.62978798	6.28687910	5.51586870
Ti	14.26597603	6.35699317	5.65091971
Ti	29.37249401	6.28523520	5.52160817
Ti	18.04691369	6.29926968	5.43650120
O	22.08801196	7.24227252	3.88341687
O	8.45696044	2.11616552	3.95065179
O	23.74128015	2.02155266	3.94549661
O	8.55654858	9.53400159	4.87694483
O	23.80067785	9.74255219	4.88636967
O	21.82264833	4.25310490	4.60652393
O	21.92164392	0.56173533	5.83131623
O	8.59583386	5.92203960	5.56504802
O	23.71242330	5.76376891	5.75736185
O	8.43972960	2.74298581	6.37867478
O	24.02377042	2.77900751	6.31229527
O	21.96273869	8.16860029	6.16521062
O	10.76099670	7.26216736	3.87179944
O	25.70218576	7.20834027	3.92357576
O	14.41343429	7.47032842	4.03342123
O	29.44529752	7.36149738	3.93988998
O	18.19313947	7.41998080	3.91624692
O	12.47676265	2.11271613	3.98003240
O	27.74840060	2.13798825	3.95011360
O	16.20855894	2.12337217	3.92749611
O	19.80268785	1.93592386	3.93360050
O	12.40234174	9.69703958	4.89553357
O	27.70379359	9.67765428	4.80294567
O	16.17697697	9.81474978	4.70440087
O	19.92007811	9.64783356	4.77778263
O	10.55212794	4.40342142	4.79675331
O	25.66540667	4.30402804	4.88272797
O	14.25071141	4.43884085	4.77226071
O	29.48413357	4.46514689	4.72997191
O	18.00507064	4.37537433	4.85362862
O	10.50570921	0.62228893	5.82258976
O	25.77368426	0.45863353	5.79192064
O	14.33965765	0.50544973	5.92759472
O	29.50286282	0.51307801	5.79786421
O	18.08147874	0.53362966	5.73670252
O	12.36419529	5.78250176	5.85268113
O	27.59400972	5.80698452	5.83353153
O	16.09648723	5.86510352	5.71755009
O	19.99748972	5.71435574	5.75366671
O	12.50144964	2.81891114	6.41301901
O	27.51635922	2.91425154	6.36845439
O	16.21837893	2.71582874	6.37802091
O	19.90037658	2.87265855	6.34977513
O	10.62661526	8.02372081	6.21358021
O	25.63204525	8.06021835	6.32004105
O	14.29993807	8.11005633	6.42996306
O	29.62746189	8.10390701	6.47602649
O	17.81271390	7.96140366	6.30918650
Ti	6.54312460	19.77013513	4.83404232
Ti	6.67428290	30.11069358	4.86016251
Ti	6.48464405	16.72691902	5.39654211
Ti	6.67373726	27.17699539	5.52981294
Ti	2.80582740	19.74535558	4.75555192
Ti	2.87059012	30.16975074	4.76156430
Ti	0.90514398	14.46900367	4.75908433
Ti	0.82946009	24.95514889	4.92496215
Ti	4.67296092	14.41701993	4.86681700
Ti	4.65600884	24.95993921	4.76508280
Ti	1.05304911	11.58761537	5.59538853
Ti	0.79462916	21.95956823	5.41471518
Ti	4.68976144	11.54329068	5.63966726
Ti	4.68242308	22.13258961	5.48711742
Ti	2.65432482	16.83030345	5.54083323
Ti	2.75969733	27.26614537	5.54206401
O	6.38543707	17.93318143	3.91179832
O	6.55286339	28.30035778	3.99053971
O	6.56662865	14.80399034	4.74220403
O	6.58845057	25.29268454	4.80772626
O	6.55998104	11.14115061	5.60177971
O	6.61809491	21.52218590	5.76833329
O	6.37185851	18.45369081	6.34024586
O	6.83433981	28.83321930	6.46760955
O	2.58988033	17.77427751	3.88611829
O	2.78820516	28.36069186	3.90810698
O	0.93967785	12.65880644	3.94930519
O	0.75838118	23.00940251	3.93020355
O	4.55199974	12.58992551	4.01820686
O	4.52261225	23.06307513	3.87111240
O	0.85122518	20.15087358	4.91280120
O	0.96379518	30.73960061	4.65273456
O	4.76749943	20.25836228	4.76492347
O	4.72124119	30.57357682	4.60531156
O	2.77285278	14.89268154	4.80747385
O	2.76923844	25.35581917	4.86414384
O	2.88759305	10.95664002	6.08010695
O	2.81217759	21.52467635	5.65447410
O	0.74471598	16.32421371	5.79768969
O	0.91268806	26.73156890	6.01019338
O	4.63482585	16.25374671	5.71231983
O	4.69673157	26.78232392	5.62023394
O	0.92217353	13.30304253	6.40875261
O	1.03576805	23.71053152	6.39382419
O	4.71167751	13.25524608	6.52938116
O	4.47738394	23.78352405	6.38100101
O	2.81760997	18.57812368	6.33328074
O	2.86806545	29.02317491	6.47541456
Ti	21.81523426	19.64364044	4.71348147
Ti	21.96142589	30.24356587	4.74991613
Ti	8.41504558	14.37523119	4.82550165
Ti	8.58758157	24.81367322	4.74048670
Ti	23.74330670	14.56440584	4.91708101
Ti	23.71832850	24.85984995	4.68145870
Ti	8.41622746	11.50556075	5.54830475
Ti	8.52100860	21.92179658	5.47314181
Ti	23.92280675	11.63394126	5.46712358
Ti	23.68778819	21.96835289	5.40314240
Ti	21.74246165	16.75692094	5.49854258
Ti	21.92613839	27.29914781	5.55999592
Ti	10.45234659	19.66615058	4.73014106
Ti	10.53345087	30.14876755	4.78761805
Ti	25.62738056	19.71778017	4.69382052
Ti	25.79146570	30.11674089	4.68303319
Ti	14.19979883	19.69620239	4.91337910
Ti	14.25124276	30.17818095	4.76244914
Ti	29.48066550	19.61145484	4.68946233
Ti	29.52548058	30.16175575	4.74274182
Ti	18.00897843	19.71027256	4.83574330
Ti	18.00790866	30.21600622	4.72995150
Ti	12.31815212	14.50678336	4.76818581
Ti	12.29459081	25.03293746	4.72576114
Ti	27.60377060	14.51917658	4.74911100
Ti	27.57757269	24.92056263	4.91360765
Ti	16.12937454	14.54070280	4.64083363
Ti	16.09030727	24.97952429	4.70381436
Ti	19.93699255	14.44625325	4.79316317
Ti	19.88852360	24.95706322	4.76969079
Ti	12.36583999	11.61775206	5.51241737
Ti	12.34534671	22.07500575	5.45125314
Ti	27.73901513	11.59097891	5.46109615
Ti	27.58208460	21.93207424	5.35890442
Ti	16.15031652	11.67607726	5.50558498
Ti	16.18864298	22.05395190	5.49404054
Ti	20.00297574	11.54484056	5.44117300
Ti	19.96704685	22.01721933	5.41256299
Ti	10.25495115	16.78818719	5.47837677
Ti	10.39986209	27.24105202	5.36202544
Ti	25.64706836	16.81212161	5.47013626
Ti	25.66857815	27.19903024	5.40741464
Ti	14.11249145	16.66173008	5.95678159
Ti	14.24926166	27.30903167	5.65778302
Ti	29.39421541	16.76463199	5.57450388
Ti	29.47815163	27.22603894	5.55814217
Ti	18.01959778	16.71339134	5.46418221
Ti	18.04044013	27.26641784	5.49063840
O	21.60469060	17.80450875	3.92600994
O	21.95866935	28.33409631	3.94695690
O	8.32762513	12.50692531	3.91891276
O	8.45484593	23.02573647	3.89030798
O	24.01076692	12.74047422	3.93272798
O	23.71892098	23.04305514	3.86796209
O	8.50612306	20.11895369	4.58428585
O	8.64021992	30.56639817	4.77618269
O	23.82618678	20.14475821	4.62462263
O	23.95699004	30.62884022	4.82120342
O	21.87397623	14.91545779	4.74322893
O	21.83535525	25.22805250	4.72120308
O	21.97278729	11.11757109	5.60057731
O	21.78786427	21.52381754	5.53717740
O	8.42959116	16.18094254	5.80480346
O	8.61363972	26.66733925	5.80941267
O	23.77430691	16.26901118	5.86312007
O	23.75674287	26.71139097	5.58765485
O	8.43027651	13.18328790	6.43031092
O	8.70416295	23.72302326	6.29810646
O	23.61686102	13.25370702	6.40484987
O	23.71126574	23.69946306	6.25004796
O	22.04481286	18.50180434	6.24659897
O	22.04924995	29.16406093	6.41639352
O	10.24303043	17.80996513	3.94302137
O	10.59345743	28.32707294	3.89020228
O	25.52433819	17.85617082	3.96844887
O	25.78533449	28.27435348	3.87068376
O	14.18462583	17.82629495	4.11306728
O	14.40711797	28.31429554	3.94651945
O	29.27948946	17.80171804	3.97703007
O	29.37786972	28.29971122	3.96140677
O	18.06052006	17.83178415	3.94430364
O	18.20076432	28.28525310	3.92222747
O	12.28663366	12.63068925	3.95534216
O	12.24522850	23.17282898	3.88429610
O	27.46480316	12.64559118	3.90586752
O	27.39607342	23.03359821	3.92584575
O	15.99295388	12.63139318	3.93301231
O	16.13033848	23.09685827	3.92755847
O	20.08373213	12.64930738	3.91626669
O	19.94079251	23.03234390	3.86642267
O	12.33278288	20.17077259	4.84832428
O	12.39797892	30.73062822	4.71586883
O	27.50829665	20.05084353	4.75884750
O	27.70256255	30.67385594	4.66416003
O	16.11596831	20.11364763	4.85051228
O	16.14932949	30.60297685	4.85428702
O	19.96606844	20.02406554	4.82075031
O	20.07786645	30.41054404	4.89457435
O	10.40220373	14.70792175	4.89673840
O	10.42715970	25.35967240	4.77487118
O	25.69629998	15.01080319	4.68884097
O	25.69710937	25.19105657	4.94446043
O	14.19816273	14.93555214	4.84084373
O	14.29763673	25.49982067	4.79158159
O	29.47315362	14.82087703	4.99823067
O	29.41788280	25.41537536	4.69918674
O	18.07317211	14.81620610	4.69041734
O	18.00453279	25.35135077	4.72235034
O	10.38087545	11.11242212	5.52211413
O	10.42007076	21.53215298	5.73743232
O	25.75076525	11.00535971	5.86365796
O	25.60039461	21.55496645	5.82741824
O	14.29777233	11.22009269	5.81806320
O	14.15489782	21.59906189	5.84168995
O	29.58255953	11.08360001	5.76590459
O	29.41885992	21.54393154	5.70362614
O	18.05637771	11.11105032	5.60550445
O	18.04395227	21.54373806	5.68405249
O	12.15052685	16.38761606	5.73718551
O	12.30437351	26.95615108	5.75783269
O	27.59568191	16.20447250	5.89854517
O	27.60674091	26.56961919	5.89198379
O	16.06560204	16.27126261	5.59261711
O	16.13291297	26.80842681	5.76275649
O	19.93244678	16.25604651	5.81656806
O	19.92456224	26.70375105	5.88421979
O	12.33715730	13.38224241	6.38221654
O	12.16196212	23.87004086	6.38389897
O	27.61447609	13.30776375	6.35998107
O	27.76852135	23.71925865	6.37599168
O	16.15000975	13.39385161	6.28178560
O	16.00815598	23.79651114	6.39362429
O	19.99335775	13.23824292	6.39003925
O	19.93242205	23.78328003	6.31635638
O	10.38953189	18.49324312	6.33289537
O	10.31696512	29.01869167	6.28921899
O	25.52116467	18.50106556	6.36827480
O	25.79099717	28.92047007	6.35219620
O	14.41227963	18.54744939	6.42634139
O	14.11782320	29.04047036	6.30548722
O	29.50186477	18.62635241	6.37456019
O	29.45371310	29.04621477	6.40850495
O	17.91735758	18.43784069	6.32995843
O	18.05649369	28.99252330	6.35378327
H	12.67611170	14.29127555	7.92772754
H	12.99869495	15.24718549	11.28455206
H	13.80257024	18.53676049	8.70836210
O	13.94195915	16.10645742	7.68355274
O	12.47728573	14.86331586	8.74688832
C	13.23368685	15.84242682	8.78599890
C	13.34577453	16.79541264	9.88631025
C	13.14203237	16.30463904	11.15244838
C	13.72761416	18.12779708	9.72431069
N	12.97714906	19.72583692	15.69092331
N	15.99638608	22.55521860	16.98563850
N	15.34273379	21.08895385	14.38685194
N	13.62200450	21.09741723	18.07166754
C	20.23219942	24.32924543	13.23848725
C	16.49708058	23.49472215	22.89874333
C	8.36717874	18.39683275	19.13857129
C	18.03590586	23.77901000	14.11007379
C	15.41546914	23.34395144	20.61324602
C	10.60783117	18.72904388	18.36799128
C	18.38305836	25.82335116	12.84247750
C	15.24416220	25.35021262	21.97074334
C	9.87979843	16.50204316	18.96605400
C	13.86772497	19.37740659	13.36822224
C	17.07752336	22.91558015	14.85738082
C	15.18120271	22.63695024	19.30769834
C	11.69709065	19.55629879	17.73777471
C	15.04019597	20.24669083	13.35548565
C	16.47520173	21.84942459	14.08724894
C	14.13747384	21.72105296	19.26168160
C	12.56522202	20.30040087	18.49577233
C	16.04692644	20.40829350	12.36892938
C	16.89363652	21.42295569	12.78228011
C	13.31848457	21.33647430	20.38007098
C	12.41306560	20.37058738	19.94415679
C	12.92648459	19.18256020	14.42239411
C	16.86020445	23.27057359	16.18520637
C	15.95961116	23.08648407	18.24110354
C	11.81199950	19.39610634	16.32015444
C	11.66711664	18.47091418	14.27203882
C	17.48907109	24.27965289	17.03798956
C	16.90580678	24.19209909	18.28595175
C	10.95049343	18.63594285	15.48187618
H	11.46922411	17.73936239	13.46160790
H	18.24709904	24.97218437	16.62818385
H	17.01496802	24.80527488	19.17698963
H	9.96695500	18.18059078	15.72446452
H	16.19874525	19.93126498	11.42912972
H	17.75634786	21.69934518	12.22877158
H	13.34310168	21.70867576	21.44138867
H	11.70447171	19.76532244	20.49622477
H	17.86944349	26.72592204	12.48285917
H	14.76973322	26.38300520	22.21806190
H	9.96974044	15.42043465	19.09857259
H	21.18237379	23.86155245	12.94154613
H	17.05807952	22.98787604	23.69631111
H	7.41409968	18.86468852	19.48103014
H	14.76704167	21.18777771	15.22538620
H	14.16228614	20.94959038	17.20206700
C	20.55218462	26.39345045	11.76625365
H	21.25617916	25.86182498	11.12318412
H	21.16868552	27.04471457	12.40134151
H	19.90718142	27.12514775	11.22087813
C	19.95419094	22.14094246	14.45118560
H	21.05277901	22.26562680	14.55667126
H	19.77391417	21.30598123	13.74867371
H	19.45755663	21.85274721	15.33794864
C	16.16915261	25.49221552	14.03960100
H	15.69193848	25.70455171	13.05438437
H	16.08795043	26.40011698	14.58494090
H	15.64817559	24.70535542	14.61498705
C	12.33500489	16.87473655	18.47220202
H	12.24860945	15.81074386	18.46671820
H	12.94590105	17.11159267	19.33053410
H	12.88267068	17.27230530	17.62142037
C	9.12043768	20.72058869	18.40453295
H	10.05399712	21.16688024	18.01803869
H	8.84753816	21.36678279	19.26014098
H	8.30353535	20.91390233	17.68303192
C	7.51043033	16.08480224	19.60039340
H	7.21299572	15.24948904	18.92533536
H	6.54905339	16.55799118	19.87162936
H	7.80560153	15.55124078	20.52038722
C	14.18219590	25.38053556	19.68305601
H	13.35881114	24.75891080	19.34153626
H	14.84162141	25.52762358	18.85988219
H	13.73984363	26.25174309	20.19839620
C	16.49000764	21.30233343	21.71466453
H	16.03794519	20.71680713	20.93097027
H	16.28194839	20.80981784	22.71001484
H	17.54521987	21.14899809	21.43004626
C	16.16668352	25.62798221	24.27382943
H	16.02848228	26.69706202	24.04327835
H	17.14683140	25.37259331	24.64225313
H	15.43653862	25.29267607	25.02865049
C	19.70187118	25.49339173	12.61978305
C	19.39688986	23.42564249	13.94028872
C	17.52732370	25.00574322	13.67262621
C	14.94772980	24.69095066	20.77497441
C	16.13625165	22.77607556	21.69968585
C	16.03851214	24.82144567	23.01735207
C	10.91869987	17.38638080	18.57376723
C	9.37950043	19.28917105	18.71588058
C	8.59670772	16.99301905	19.16795292
H	13.55093309	16.80974979	13.28337768
H	14.12814373	20.02310072	10.59383862
C	13.67615343	18.54993539	12.16404545
C	13.45455476	17.16756033	12.25304771
C	13.84697834	18.99611965	10.81081571

Ti O H C N 0
6-31G*
****

