%chk=f00017218.chk
%mem=24GB
%nproc=12
#p b3lyp/6-31G*

title

0 1
Ti	2.81187400	0.19704000	1.10336000
Ti	0.90594400	5.44057000	1.10336000
Ti	4.71781400	5.44057000	1.10336000
Ti	0.90594400	2.47241000	1.99114000
Ti	4.71781400	2.47241000	1.99114000
Ti	2.81187400	7.71594000	1.99115000
O	2.81187400	8.81302000	0.37332000
O	0.90594400	3.56949000	0.37332000
O	4.71781400	3.56949000	0.37332000
O	0.90594400	0.60134000	1.26110000
O	4.71781400	0.60134000	1.26110000
O	2.81187400	5.84486000	1.26111000
O	2.81187400	2.06812000	1.83340000
O	0.90594400	7.31164000	1.83340000
O	4.71781400	7.31164000	1.83340000
O	0.90594400	4.34349000	2.72118000
O	4.71781400	4.34349000	2.72118000
O	2.81187400	9.58701000	2.72118000
Ti	6.62374588	0.19704000	1.10336000
Ti	21.87123776	0.19704000	1.10336000
Ti	8.52968588	5.44057000	1.10336000
Ti	23.77717776	5.44057000	1.10336000
Ti	8.52968588	2.47241000	1.99114000
Ti	23.77717776	2.47241000	1.99114000
Ti	6.62374588	7.71594000	1.99115000
Ti	21.87123776	7.71594000	1.99115000
Ti	10.43561588	0.19704000	1.10336000
Ti	25.68310776	0.19704000	1.10336000
Ti	14.24749588	0.19704000	1.10336000
Ti	29.49498776	0.19704000	1.10336000
Ti	18.05936588	0.19704000	1.10336000
Ti	12.34155588	5.44057000	1.10336000
Ti	27.58904776	5.44057000	1.10336000
Ti	16.15343588	5.44057000	1.10336000
Ti	19.96530588	5.44057000	1.10336000
Ti	12.34155588	2.47241000	1.99114000
Ti	27.58904776	2.47241000	1.99114000
Ti	16.15343588	2.47241000	1.99114000
Ti	19.96530588	2.47241000	1.99114000
Ti	10.43561588	7.71594000	1.99115000
Ti	25.68310776	7.71594000	1.99115000
Ti	14.24749588	7.71594000	1.99115000
Ti	29.49498776	7.71594000	1.99115000
Ti	18.05936588	7.71594000	1.99115000
O	6.62374588	8.81302000	0.37332000
O	21.87123776	8.81302000	0.37332000
O	8.52968588	3.56949000	0.37332000
O	23.77717776	3.56949000	0.37332000
O	8.52968588	0.60134000	1.26110000
O	23.77717776	0.60134000	1.26110000
O	6.62374588	5.84486000	1.26111000
O	21.87123776	5.84486000	1.26111000
O	6.62374588	2.06812000	1.83340000
O	21.87123776	2.06812000	1.83340000
O	8.52968588	7.31164000	1.83340000
O	23.77717776	7.31164000	1.83340000
O	8.52968588	4.34349000	2.72118000
O	23.77717776	4.34349000	2.72118000
O	6.62374588	9.58701000	2.72118000
O	21.87123776	9.58701000	2.72118000
O	10.43561588	8.81302000	0.37332000
O	25.68310776	8.81302000	0.37332000
O	14.24749588	8.81302000	0.37332000
O	29.49498776	8.81302000	0.37332000
O	18.05936588	8.81302000	0.37332000
O	12.34155588	3.56949000	0.37332000
O	27.58904776	3.56949000	0.37332000
O	16.15343588	3.56949000	0.37332000
O	19.96530588	3.56949000	0.37332000
O	12.34155588	0.60134000	1.26110000
O	27.58904776	0.60134000	1.26110000
O	16.15343588	0.60134000	1.26110000
O	19.96530588	0.60134000	1.26110000
O	10.43561588	5.84486000	1.26111000
O	25.68310776	5.84486000	1.26111000
O	14.24749588	5.84486000	1.26111000
O	29.49498776	5.84486000	1.26111000
O	18.05936588	5.84486000	1.26111000
O	10.43561588	2.06812000	1.83340000
O	25.68310776	2.06812000	1.83340000
O	14.24749588	2.06812000	1.83340000
O	29.49498776	2.06812000	1.83340000
O	18.05936588	2.06812000	1.83340000
O	12.34155588	7.31164000	1.83340000
O	27.58904776	7.31164000	1.83340000
O	16.15343588	7.31164000	1.83340000
O	19.96530588	7.31164000	1.83340000
O	12.34155588	4.34349000	2.72118000
O	27.58904776	4.34349000	2.72118000
O	16.15343588	4.34349000	2.72118000
O	19.96530588	4.34349000	2.72118000
O	10.43561588	9.58701000	2.72118000
O	25.68310776	9.58701000	2.72118000
O	14.24749588	9.58701000	2.72118000
O	29.49498776	9.58701000	2.72118000
O	18.05936588	9.58701000	2.72118000
Ti	2.81187400	10.68408607	1.10336000
Ti	2.81187400	21.17113214	1.10336000
Ti	0.90594400	15.92761607	1.10336000
Ti	0.90594400	26.41466214	1.10336000
Ti	4.71781400	15.92761607	1.10336000
Ti	4.71781400	26.41466214	1.10336000
Ti	0.90594400	12.95945607	1.99114000
Ti	0.90594400	23.44650214	1.99114000
Ti	4.71781400	12.95945607	1.99114000
Ti	4.71781400	23.44650214	1.99114000
Ti	2.81187400	18.20298607	1.99115000
Ti	2.81187400	28.69003214	1.99115000
O	2.81187400	19.30006607	0.37332000
O	2.81187400	29.78711214	0.37332000
O	0.90594400	14.05653607	0.37332000
O	0.90594400	24.54358214	0.37332000
O	4.71781400	14.05653607	0.37332000
O	4.71781400	24.54358214	0.37332000
O	0.90594400	11.08838607	1.26110000
O	0.90594400	21.57543214	1.26110000
O	4.71781400	11.08838607	1.26110000
O	4.71781400	21.57543214	1.26110000
O	2.81187400	16.33190607	1.26111000
O	2.81187400	26.81895214	1.26111000
O	2.81187400	12.55516607	1.83340000
O	2.81187400	23.04221214	1.83340000
O	0.90594400	17.79868607	1.83340000
O	0.90594400	28.28573214	1.83340000
O	4.71781400	17.79868607	1.83340000
O	4.71781400	28.28573214	1.83340000
O	0.90594400	14.83053607	2.72118000
O	0.90594400	25.31758214	2.72118000
O	4.71781400	14.83053607	2.72118000
O	4.71781400	25.31758214	2.72118000
O	2.81187400	20.07405607	2.72118000
O	2.81187400	30.56110214	2.72118000
Ti	6.62374588	10.68408607	1.10336000
Ti	6.62374588	21.17113214	1.10336000
Ti	21.87123776	10.68408607	1.10336000
Ti	21.87123776	21.17113214	1.10336000
Ti	8.52968588	15.92761607	1.10336000
Ti	8.52968588	26.41466214	1.10336000
Ti	23.77717776	15.92761607	1.10336000
Ti	23.77717776	26.41466214	1.10336000
Ti	8.52968588	12.95945607	1.99114000
Ti	8.52968588	23.44650214	1.99114000
Ti	23.77717776	12.95945607	1.99114000
Ti	23.77717776	23.44650214	1.99114000
Ti	6.62374588	18.20298607	1.99115000
Ti	6.62374588	28.69003214	1.99115000
Ti	21.87123776	18.20298607	1.99115000
Ti	21.87123776	28.69003214	1.99115000
Ti	10.43561588	10.68408607	1.10336000
Ti	10.43561588	21.17113214	1.10336000
Ti	25.68310776	10.68408607	1.10336000
Ti	25.68310776	21.17113214	1.10336000
Ti	14.24749588	10.68408607	1.10336000
Ti	14.24749588	21.17113214	1.10336000
Ti	29.49498776	10.68408607	1.10336000
Ti	29.49498776	21.17113214	1.10336000
Ti	18.05936588	10.68408607	1.10336000
Ti	18.05936588	21.17113214	1.10336000
Ti	12.34155588	15.92761607	1.10336000
Ti	12.34155588	26.41466214	1.10336000
Ti	27.58904776	15.92761607	1.10336000
Ti	27.58904776	26.41466214	1.10336000
Ti	16.15343588	15.92761607	1.10336000
Ti	16.15343588	26.41466214	1.10336000
Ti	19.96530588	15.92761607	1.10336000
Ti	19.96530588	26.41466214	1.10336000
Ti	12.34155588	12.95945607	1.99114000
Ti	12.34155588	23.44650214	1.99114000
Ti	27.58904776	12.95945607	1.99114000
Ti	27.58904776	23.44650214	1.99114000
Ti	16.15343588	12.95945607	1.99114000
Ti	16.15343588	23.44650214	1.99114000
Ti	19.96530588	12.95945607	1.99114000
Ti	19.96530588	23.44650214	1.99114000
Ti	10.43561588	18.20298607	1.99115000
Ti	10.43561588	28.69003214	1.99115000
Ti	25.68310776	18.20298607	1.99115000
Ti	25.68310776	28.69003214	1.99115000
Ti	14.24749588	18.20298607	1.99115000
Ti	14.24749588	28.69003214	1.99115000
Ti	29.49498776	18.20298607	1.99115000
Ti	29.49498776	28.69003214	1.99115000
Ti	18.05936588	18.20298607	1.99115000
Ti	18.05936588	28.69003214	1.99115000
O	6.62374588	19.30006607	0.37332000
O	6.62374588	29.78711214	0.37332000
O	21.87123776	19.30006607	0.37332000
O	21.87123776	29.78711214	0.37332000
O	8.52968588	14.05653607	0.37332000
O	8.52968588	24.54358214	0.37332000
O	23.77717776	14.05653607	0.37332000
O	23.77717776	24.54358214	0.37332000
O	8.52968588	11.08838607	1.26110000
O	8.52968588	21.57543214	1.26110000
O	23.77717776	11.08838607	1.26110000
O	23.77717776	21.57543214	1.26110000
O	6.62374588	16.33190607	1.26111000
O	6.62374588	26.81895214	1.26111000
O	21.87123776	16.33190607	1.26111000
O	21.87123776	26.81895214	1.26111000
O	6.62374588	12.55516607	1.83340000
O	6.62374588	23.04221214	1.83340000
O	21.87123776	12.55516607	1.83340000
O	21.87123776	23.04221214	1.83340000
O	8.52968588	17.79868607	1.83340000
O	8.52968588	28.28573214	1.83340000
O	23.77717776	17.79868607	1.83340000
O	23.77717776	28.28573214	1.83340000
O	8.52968588	14.83053607	2.72118000
O	8.52968588	25.31758214	2.72118000
O	23.77717776	14.83053607	2.72118000
O	23.77717776	25.31758214	2.72118000
O	6.62374588	20.07405607	2.72118000
O	6.62374588	30.56110214	2.72118000
O	21.87123776	20.07405607	2.72118000
O	21.87123776	30.56110214	2.72118000
O	10.43561588	19.30006607	0.37332000
O	10.43561588	29.78711214	0.37332000
O	25.68310776	19.30006607	0.37332000
O	25.68310776	29.78711214	0.37332000
O	14.24749588	19.30006607	0.37332000
O	14.24749588	29.78711214	0.37332000
O	29.49498776	19.30006607	0.37332000
O	29.49498776	29.78711214	0.37332000
O	18.05936588	19.30006607	0.37332000
O	18.05936588	29.78711214	0.37332000
O	12.34155588	14.05653607	0.37332000
O	12.34155588	24.54358214	0.37332000
O	27.58904776	14.05653607	0.37332000
O	27.58904776	24.54358214	0.37332000
O	16.15343588	14.05653607	0.37332000
O	16.15343588	24.54358214	0.37332000
O	19.96530588	14.05653607	0.37332000
O	19.96530588	24.54358214	0.37332000
O	12.34155588	11.08838607	1.26110000
O	12.34155588	21.57543214	1.26110000
O	27.58904776	11.08838607	1.26110000
O	27.58904776	21.57543214	1.26110000
O	16.15343588	11.08838607	1.26110000
O	16.15343588	21.57543214	1.26110000
O	19.96530588	11.08838607	1.26110000
O	19.96530588	21.57543214	1.26110000
O	10.43561588	16.33190607	1.26111000
O	10.43561588	26.81895214	1.26111000
O	25.68310776	16.33190607	1.26111000
O	25.68310776	26.81895214	1.26111000
O	14.24749588	16.33190607	1.26111000
O	14.24749588	26.81895214	1.26111000
O	29.49498776	16.33190607	1.26111000
O	29.49498776	26.81895214	1.26111000
O	18.05936588	16.33190607	1.26111000
O	18.05936588	26.81895214	1.26111000
O	10.43561588	12.55516607	1.83340000
O	10.43561588	23.04221214	1.83340000
O	25.68310776	12.55516607	1.83340000
O	25.68310776	23.04221214	1.83340000
O	14.24749588	12.55516607	1.83340000
O	14.24749588	23.04221214	1.83340000
O	29.49498776	12.55516607	1.83340000
O	29.49498776	23.04221214	1.83340000
O	18.05936588	12.55516607	1.83340000
O	18.05936588	23.04221214	1.83340000
O	12.34155588	17.79868607	1.83340000
O	12.34155588	28.28573214	1.83340000
O	27.58904776	17.79868607	1.83340000
O	27.58904776	28.28573214	1.83340000
O	16.15343588	17.79868607	1.83340000
O	16.15343588	28.28573214	1.83340000
O	19.96530588	17.79868607	1.83340000
O	19.96530588	28.28573214	1.83340000
O	12.34155588	14.83053607	2.72118000
O	12.34155588	25.31758214	2.72118000
O	27.58904776	14.83053607	2.72118000
O	27.58904776	25.31758214	2.72118000
O	16.15343588	14.83053607	2.72118000
O	16.15343588	25.31758214	2.72118000
O	19.96530588	14.83053607	2.72118000
O	19.96530588	25.31758214	2.72118000
O	10.43561588	20.07405607	2.72118000
O	10.43561588	30.56110214	2.72118000
O	25.68310776	20.07405607	2.72118000
O	25.68310776	30.56110214	2.72118000
O	14.24749588	20.07405607	2.72118000
O	14.24749588	30.56110214	2.72118000
O	29.49498776	20.07405607	2.72118000
O	29.49498776	30.56110214	2.72118000
O	18.05936588	20.07405607	2.72118000
O	18.05936588	30.56110214	2.72118000
Ti	6.64158866	9.19017989	4.67716705
Ti	6.65499722	6.30094555	5.42991935
Ti	2.86317840	9.21531084	4.70145549
Ti	0.92269165	4.06368260	4.70142264
Ti	4.66248275	4.03186189	4.70801812
Ti	0.92206502	1.08798884	5.43538083
Ti	4.79386973	1.07916808	5.42495228
Ti	2.80499938	6.30799240	5.54899552
O	6.55533744	7.35814394	3.93305388
O	6.63474245	4.47063540	4.74614626
O	6.66071668	0.65161130	5.72373461
O	6.57803779	8.02854500	6.27274192
O	2.70399006	7.25905919	3.93496361
O	1.14102758	2.14455009	3.86750221
O	4.62295460	2.16357289	3.87591401
O	0.91758859	9.56101096	4.82097458
O	4.78116236	9.69769569	4.71145197
O	2.80524624	4.43138266	4.79255430
O	2.89336743	0.47822778	5.96921905
O	0.86785343	5.91304507	5.66428552
O	4.69882308	5.79952605	5.80842511
O	1.07886421	2.81851023	6.37900240
O	4.73922454	2.78596001	6.26270022
O	2.87353576	8.06796832	6.27102943
Ti	21.87526022	9.24070193	4.69435444
Ti	8.55794343	3.95143262	4.63847416
Ti	23.93098395	3.92112313	4.82422808
Ti	8.50514686	1.10078035	5.40517353
Ti	23.72425053	0.95487601	5.39242048
Ti	21.88017878	6.37187460	5.51538096
Ti	10.47953345	9.19361445	4.84998648
Ti	25.75349387	9.22504018	4.78651715
Ti	14.22346018	9.17085389	4.69155324
Ti	29.47925933	9.27867523	4.75028939
Ti	18.05254076	9.14599578	4.66639455
Ti	12.34915272	4.01173861	4.70250162
Ti	27.58614655	4.01746228	4.80518923
Ti	16.15890236	3.91762327	4.92378292
Ti	19.98751229	4.04691617	4.74227450
Ti	12.48656057	1.06798049	5.54522556
Ti	27.65189556	0.99134118	5.45333642
Ti	16.28804559	0.96890249	5.42187502
Ti	20.08535624	1.04495204	5.53939721
Ti	10.39635307	6.24601804	5.43879143
Ti	25.77659948	6.26648677	5.44645607
Ti	14.30241683	6.33103229	5.43737501
Ti	29.51964086	6.32652460	5.40028340
Ti	18.06122592	6.33296857	5.55209468
O	21.88499928	7.32896566	3.90896997
O	8.51071852	2.02460623	3.84692768
O	23.89708725	2.12192925	3.89874180
O	8.50304573	9.58945198	4.85639062
O	23.86908464	9.62036645	4.67845037
O	21.95938015	4.33109559	4.85710328
O	21.90363299	0.56976426	5.85048641
O	8.56248192	5.91457274	5.77231564
O	23.84726139	5.88629802	5.74246811
O	8.48897409	2.79097806	6.26935456
O	23.87101857	2.67831903	6.41449997
O	21.77448938	8.03024868	6.48230183
O	10.23443144	7.35636648	3.92643434
O	26.14679997	7.38325322	3.93781869
O	14.13342195	7.32979000	3.86310680
O	29.45369188	7.30877216	3.89558034
O	18.12980234	7.23913509	3.91169969
O	12.37228789	2.13748256	3.92004369
O	27.67025556	2.14836714	3.94423560
O	16.20705916	2.13460291	3.94072756
O	19.95378126	2.07593319	3.95179750
O	12.33564336	9.65989762	4.70375274
O	27.64057372	9.69739858	4.75433258
O	16.18329331	9.46501624	4.82619960
O	19.95450974	9.62570390	4.83403330
O	10.39975492	4.38905812	4.75373284
O	25.75362409	4.37192941	4.67910279
O	14.25657184	4.32980392	4.87236036
O	29.53649676	4.42069424	4.74878866
O	18.15853766	4.51099652	4.76566418
O	10.55486428	0.65466623	5.68629381
O	25.70963378	0.50140702	5.71885703
O	14.31618499	0.54565643	5.74812987
O	29.55223527	0.53087214	5.70212962
O	18.16693094	0.50386638	5.74560734
O	12.32428645	5.84154107	5.53895530
O	27.62722825	5.87927045	5.88859494
O	16.18485828	5.85761510	5.75131542
O	20.06571723	5.72829252	5.90877377
O	12.52239058	2.90102122	6.38434469
O	27.50988490	2.78345197	6.39084317
O	16.13103263	2.69358951	6.38940392
O	20.00534165	2.80728418	6.33297393
O	10.27708042	7.97634088	6.36179022
O	25.48367154	8.03113148	6.36836416
O	14.12737856	8.07012449	6.38041638
O	29.53901617	8.05611068	6.32120098
O	18.20770980	8.07153810	6.39341334
Ti	6.59190737	19.72548077	4.68233516
Ti	6.66241423	30.30278729	4.69649591
Ti	6.60886161	16.77452674	5.49668252
Ti	6.71537483	27.36512120	5.58795888
Ti	2.82358369	19.69424770	4.71007693
Ti	2.92522554	30.11970970	4.77590801
Ti	0.80504521	14.29423398	4.64703588
Ti	0.97845121	24.86998382	4.70630074
Ti	4.59376255	14.58912487	4.87083145
Ti	4.74977471	25.13657725	4.84618013
Ti	0.86783632	11.44334271	5.49310817
Ti	0.92204282	22.03515053	5.41007765
Ti	4.69609232	11.60303447	5.56045596
Ti	4.61221626	22.16240704	5.60250643
Ti	2.74966995	16.87026745	5.70350520
Ti	2.77719217	27.28307680	5.51449333
O	6.74545867	17.78366957	3.86779089
O	6.69944850	28.38643419	4.00804422
O	6.52070487	14.83942389	4.77042825
O	6.66771332	25.45858350	4.84577101
O	6.54416451	11.13344679	5.74866488
O	6.58701616	21.60299217	5.78716359
O	6.81287055	18.57297046	6.20426259
O	6.64912766	29.13550951	6.42892160
O	2.84436388	17.73230701	3.96710278
O	2.71196264	28.27228922	4.00359657
O	0.71626026	12.45457698	3.85831043
O	0.91715319	23.09695120	3.87358691
O	4.59600107	12.79568153	4.01912460
O	4.56743523	23.21787471	3.98065146
O	0.87339591	20.12161886	4.58547418
O	0.98935115	30.60603894	4.89498542
O	4.74084851	20.21985034	4.75671685
O	4.71031506	30.68612639	4.68192928
O	2.64940423	14.94210150	4.99961242
O	2.81714647	25.40725057	4.69458976
O	2.80363019	11.08081750	5.66608700
O	2.81011862	21.56279446	5.82903075
O	0.85989595	16.62323098	6.31951534
O	0.93797276	26.74019144	5.76384915
O	4.68748790	16.32263844	6.01651513
O	4.74984796	26.89029968	5.82479475
O	0.92397245	13.20179304	6.33513118
O	0.98111395	23.83995244	6.30355355
O	4.65914800	13.29095079	6.57321159
O	4.80676790	23.89993943	6.43828615
O	2.83161061	18.68727709	6.30910840
O	3.04757172	29.00336980	6.36642321
Ti	21.76642537	19.77305538	4.76920941
Ti	21.87475695	30.09046273	4.83911301
Ti	8.50636611	14.47111855	4.68673857
Ti	8.55604695	25.00904115	4.88511010
Ti	23.73715277	14.42137206	4.68568591
Ti	23.81351834	24.83894390	4.73243658
Ti	8.49053608	11.61927521	5.49151361
Ti	8.49856470	22.04109473	5.55852353
Ti	23.78965664	11.48328680	5.45613793
Ti	23.70568299	21.94857645	5.48870903
Ti	21.96156016	16.86268952	5.59450074
Ti	21.86031189	27.15701419	5.38070590
Ti	10.28342845	19.66871929	4.77995342
Ti	10.39238135	30.20142827	4.80893365
Ti	25.57440778	19.75181195	4.64869510
Ti	25.74118965	30.17605326	4.85596132
Ti	14.16811967	19.64489325	4.81887309
Ti	14.27505698	30.16558135	5.00045910
Ti	29.46272032	19.75876608	4.80615481
Ti	29.56419773	30.19144625	4.63505527
Ti	18.03657867	19.70150352	4.89854270
Ti	18.20423171	30.19771669	4.78753599
Ti	12.31522926	14.57280301	4.73264558
Ti	12.45925288	24.94260662	4.78955201
Ti	27.65716495	14.56443670	4.74311894
Ti	27.60533600	24.87974464	4.64895842
Ti	16.11853653	14.40158326	4.70370231
Ti	16.14600914	24.88160303	4.70710069
Ti	20.00507983	14.41348866	4.68621084
Ti	19.92791062	24.89960689	4.85244042
Ti	12.30332541	11.56978365	5.45638480
Ti	12.38178834	22.04532402	5.49837962
Ti	27.52612391	11.67476819	5.47544522
Ti	27.56458199	21.93714977	5.56162177
Ti	16.03286414	11.52703950	5.42162207
Ti	16.13089448	22.00727705	5.51120599
Ti	19.91550924	11.52666728	5.50498231
Ti	19.85149767	22.01993722	5.60169180
Ti	10.32047566	16.75042327	5.43721531
Ti	10.53418657	27.20813317	5.43545279
Ti	25.68649012	16.77253008	5.50665422
Ti	25.65471135	27.25828987	5.50362754
Ti	14.23292179	16.81023460	5.87995018
Ti	14.30123796	27.26557003	5.53405983
Ti	29.52676044	16.84040884	5.62212222
Ti	29.52723828	27.23931113	5.40240861
Ti	18.18682213	16.76987518	5.61505742
Ti	18.04794436	27.25582729	5.61837772
O	21.97907273	17.77096880	3.96291568
O	21.67872655	28.32545257	3.91167921
O	8.76665461	12.57345636	3.92801574
O	8.59444769	23.14498279	4.03509414
O	23.96848314	12.57442744	3.88358703
O	23.64062222	23.02950755	3.92139016
O	8.45010241	20.21378725	4.82053853
O	8.52317155	30.61680336	4.96012643
O	23.71202415	20.05960466	4.67552413
O	23.73397977	30.51021040	4.83500503
O	21.85407275	15.00543145	4.59892948
O	21.89307136	25.32693516	4.85283908
O	21.89253385	10.99867956	5.76640876
O	21.86476274	21.46777858	5.88370363
O	8.46953297	16.26702497	5.66645494
O	8.62637628	26.82498100	5.69991435
O	23.77470299	16.29409747	5.86793496
O	23.71334229	26.74287550	5.70217267
O	8.51234461	13.31895941	6.34402649
O	8.47644901	23.86777130	6.44588152
O	23.56682453	13.28950862	6.31913424
O	23.71076458	23.71190455	6.30808492
O	21.57101018	18.55322446	6.36268658
O	22.00827768	28.87178272	6.35913993
O	10.33465040	17.90545318	3.95071224
O	10.38995493	28.43240692	3.97640628
O	25.54834033	17.69313874	3.91501825
O	25.70114702	28.30003396	3.91083275
O	14.20000016	17.82381184	4.08329532
O	14.21894213	28.31177210	3.96307422
O	29.58278001	17.86435335	4.01411415
O	29.45817668	28.35617946	3.88491148
O	18.25503850	17.86024967	4.05322511
O	18.07352917	28.28855612	3.99917546
O	12.31827426	12.70138823	3.97763690
O	12.53190826	23.08813826	3.91514137
O	27.64047902	12.57786051	3.94275671
O	27.60828906	22.94120803	3.98519079
O	16.00213952	12.58603792	3.87628380
O	16.24499112	23.02970803	3.89774534
O	19.99738927	12.53578340	3.93117999
O	19.93447626	23.03731230	3.92843192
O	12.34358723	20.12759870	4.91553486
O	12.41173851	30.57631750	4.79117661
O	27.50154532	20.12678329	4.77938488
O	27.72958208	30.35675950	5.04492216
O	16.13012623	20.11037692	4.63187320
O	16.17517358	30.55033020	4.81034918
O	19.86570076	20.36726433	4.57903154
O	20.04334147	30.61396490	4.76784761
O	10.42657460	14.82747843	4.94349281
O	10.45925416	25.34537002	4.65876209
O	25.67357857	14.86555130	4.73861040
O	25.64296458	25.27030440	4.88092658
O	14.27152225	14.93225501	5.04700456
O	14.29974982	25.51834212	4.62560730
O	29.55559012	14.92026811	4.96673078
O	29.48701662	25.25047353	4.74770997
O	18.09103895	14.82816119	4.88128886
O	17.97498839	25.39060018	4.91057946
O	10.36230398	11.11079603	5.80016202
O	10.38845579	21.57670092	5.59869457
O	25.70035536	11.11588400	5.89875429
O	25.62166420	21.42377954	5.72162512
O	14.19936435	10.99455110	5.64405621
O	14.30265569	21.48173193	5.71745637
O	29.51163254	11.10603663	5.85533448
O	29.47283915	21.49874280	5.79016200
O	17.99569586	11.05063265	5.71386916
O	17.99376786	21.46296391	5.85730068
O	12.23366753	16.29806432	5.81097927
O	12.50966364	26.73362570	5.89327976
O	27.65627583	16.30263669	5.68405245
O	27.61039045	26.83863689	5.69417017
O	16.13485730	16.25620187	5.61994400
O	16.19088673	26.68370846	5.84819478
O	20.06189783	16.11864399	5.87953931
O	19.94543275	26.64155709	5.97273163
O	12.38685139	13.36683019	6.35615923
O	12.33035057	23.83459115	6.26964311
O	27.41309430	13.47968023	6.37859757
O	27.62625335	23.74877414	6.37688851
O	16.18466559	13.24692418	6.34652402
O	16.16587236	23.72732556	6.29555192
O	20.26239175	13.20686961	6.36905815
O	19.75984145	23.80973407	6.52402706
O	10.48151462	18.47637548	6.37882027
O	10.47729172	29.00387787	6.30838697
O	25.52404528	18.53941918	6.37391194
O	25.66326492	28.93114984	6.46753211
O	14.31573801	18.62868552	6.53067810
O	14.40600792	28.97727587	6.45337207
O	29.20490559	18.57393215	6.38972614
O	29.80808318	28.89149212	6.37712983
O	18.15172611	18.55477148	6.42653711
O	18.01007373	29.10192995	6.34661945
H	13.41456110	14.22198365	7.80565103
H	13.77417186	14.92347212	11.36154663
H	14.35441385	18.44530486	8.86435688
O	14.49328224	16.19866729	7.68441137
O	13.34109354	14.60694259	8.72583412
C	13.86989759	15.74974280	8.80895954
C	13.95966650	16.60306481	10.01836190
C	13.86252099	16.01980597	11.26304691
C	14.26754485	17.98804148	9.86417626
N	12.96874119	19.79460114	15.50005181
N	15.58083809	22.43341251	17.14694522
N	15.45018300	20.80664060	14.56705502
N	13.18863303	21.34589880	18.03820032
C	20.77766842	22.92408309	13.89474472
C	15.51969961	23.22916381	23.02182049
C	7.45154622	19.72165120	17.75946892
C	18.45576776	23.05660186	14.57117700
C	14.77812441	23.50494390	20.72350019
C	9.89630860	19.55428468	17.66030055
C	19.34686710	24.65450019	12.97071625
C	14.47004637	25.23814670	22.37242318
C	8.62895286	18.23912539	19.29873957
C	14.19310489	19.05874172	13.43764467
C	17.25870918	22.40552337	15.23245925
C	14.61488993	22.85777183	19.38351404
C	11.22546371	19.97426500	17.21992035
C	15.32075399	19.82886730	13.61596551
C	16.61376859	21.46986976	14.39007745
C	13.45842215	22.05451828	19.16407785
C	11.93048466	20.77142443	18.13548957
C	16.45586863	19.98760222	12.67362655
C	17.24788551	20.98764400	13.14934157
C	12.29088044	21.96988072	20.05297588
C	11.41934687	21.11786474	19.44948624
C	13.05820821	19.09105910	14.31291365
C	16.77975974	22.79630096	16.50254684
C	15.61153261	22.97887760	18.43803158
C	11.68999956	19.62622753	15.93257365
C	11.79228455	18.39576776	14.03656535
C	17.51883798	23.65131704	17.43541271
C	16.80268494	23.77588824	18.57766993
C	10.94663121	18.78112970	15.06321205
H	11.57622720	17.76877838	13.12306995
H	18.43765902	24.23357433	17.19437959
H	16.88971020	24.39228671	19.46183347
H	9.94295195	18.27970593	15.18757458
H	16.62630229	19.33120215	11.83361323
H	18.20688703	21.26277498	12.70760424
H	12.34226055	22.51925381	21.04604913
H	10.37562813	20.97199331	19.87495979
H	19.24666272	25.63600772	12.46842171
H	14.14409661	26.22971380	22.57231240
H	8.60933175	17.46770428	20.05484427
H	21.75009709	22.46575453	13.87348757
H	15.91879019	22.59881483	23.83887283
H	6.60852244	20.10755655	17.27656661
H	14.76769684	21.00949057	15.31092638
H	13.75013883	21.22133827	17.19179338
C	21.76190211	24.48034251	12.13861758
H	22.11374879	25.45565520	12.45677823
H	21.39862446	24.49090411	11.03925770
H	22.59999134	23.71565295	12.17287418
C	19.81087136	21.07077874	15.21815383
H	20.77779365	20.93494115	15.70860842
H	19.77627204	20.28889049	14.49616425
H	19.00499855	20.83590113	15.92593065
C	16.96164765	24.80977583	13.65800319
H	16.88882963	25.60421719	12.93246589
H	16.80760114	25.36659324	14.59120045
H	16.13330906	24.10763030	13.54349672
C	11.06323036	17.82732981	19.06755392
H	11.14835190	17.83075445	20.16892201
H	11.97621021	18.31167028	18.75982732
H	10.98686374	16.82898770	18.62951563
C	8.76136920	21.11630955	16.13799436
H	9.43900194	20.84361246	15.34261337
H	9.23947395	22.03935054	16.49343145
H	7.81983045	21.41332205	15.62079491
C	6.11354151	18.31564311	19.25880511
H	5.95156498	17.26265086	19.13491515
H	5.21908186	18.82058721	18.81273565
H	5.96295181	18.45421090	20.36711672
C	13.73927851	25.63346352	19.96363702
H	12.91690796	26.36607934	20.31442659
H	13.26705308	24.99022888	19.14292181
H	14.50390143	26.31592677	19.47005697
C	16.03158538	21.46834847	21.29812296
H	16.78411541	21.56298712	20.51632167
H	15.22094184	20.81210952	20.95453593
H	16.44950402	20.95241711	22.10887857
C	15.08455855	24.85771976	24.84899896
H	16.13576415	25.13566207	25.01666586
H	14.74903707	24.06123048	25.56443142
H	14.45070244	25.76388984	25.04894668
C	20.62217345	24.04482729	13.05207046
C	19.68118599	22.42986909	14.62575980
C	18.29815971	24.19504992	13.74640987
C	14.32983016	24.78555302	21.05377235
C	15.44713190	22.74219478	21.69331415
C	15.04159766	24.45024245	23.40801551
C	9.83223682	18.58383008	18.71149426
C	8.66154507	20.07153294	17.14593403
C	7.44069003	18.72594178	18.73306491
H	13.51491833	16.60002857	13.36748076
H	14.65879018	19.85827557	10.95321319
C	14.11695181	18.19838939	12.25001250
C	13.86664953	16.85235528	12.38726670
C	14.37312737	18.79032216	10.95344325

Ti O H C N 0
6-31G*
****

