%chk=f00014477.chk
%mem=24GB
%nproc=12
#p b3lyp/6-31G*

title

0 1
Ti	2.81187400	0.19704000	1.10336000
Ti	0.90594400	5.44057000	1.10336000
Ti	4.71781400	5.44057000	1.10336000
Ti	0.90594400	2.47241000	1.99114000
Ti	4.71781400	2.47241000	1.99114000
Ti	2.81187400	7.71594000	1.99115000
O	2.81187400	8.81302000	0.37332000
O	0.90594400	3.56949000	0.37332000
O	4.71781400	3.56949000	0.37332000
O	0.90594400	0.60134000	1.26110000
O	4.71781400	0.60134000	1.26110000
O	2.81187400	5.84486000	1.26111000
O	2.81187400	2.06812000	1.83340000
O	0.90594400	7.31164000	1.83340000
O	4.71781400	7.31164000	1.83340000
O	0.90594400	4.34349000	2.72118000
O	4.71781400	4.34349000	2.72118000
O	2.81187400	9.58701000	2.72118000
Ti	6.62374588	0.19704000	1.10336000
Ti	21.87123776	0.19704000	1.10336000
Ti	8.52968588	5.44057000	1.10336000
Ti	23.77717776	5.44057000	1.10336000
Ti	8.52968588	2.47241000	1.99114000
Ti	23.77717776	2.47241000	1.99114000
Ti	6.62374588	7.71594000	1.99115000
Ti	21.87123776	7.71594000	1.99115000
Ti	10.43561588	0.19704000	1.10336000
Ti	25.68310776	0.19704000	1.10336000
Ti	14.24749588	0.19704000	1.10336000
Ti	29.49498776	0.19704000	1.10336000
Ti	18.05936588	0.19704000	1.10336000
Ti	12.34155588	5.44057000	1.10336000
Ti	27.58904776	5.44057000	1.10336000
Ti	16.15343588	5.44057000	1.10336000
Ti	19.96530588	5.44057000	1.10336000
Ti	12.34155588	2.47241000	1.99114000
Ti	27.58904776	2.47241000	1.99114000
Ti	16.15343588	2.47241000	1.99114000
Ti	19.96530588	2.47241000	1.99114000
Ti	10.43561588	7.71594000	1.99115000
Ti	25.68310776	7.71594000	1.99115000
Ti	14.24749588	7.71594000	1.99115000
Ti	29.49498776	7.71594000	1.99115000
Ti	18.05936588	7.71594000	1.99115000
O	6.62374588	8.81302000	0.37332000
O	21.87123776	8.81302000	0.37332000
O	8.52968588	3.56949000	0.37332000
O	23.77717776	3.56949000	0.37332000
O	8.52968588	0.60134000	1.26110000
O	23.77717776	0.60134000	1.26110000
O	6.62374588	5.84486000	1.26111000
O	21.87123776	5.84486000	1.26111000
O	6.62374588	2.06812000	1.83340000
O	21.87123776	2.06812000	1.83340000
O	8.52968588	7.31164000	1.83340000
O	23.77717776	7.31164000	1.83340000
O	8.52968588	4.34349000	2.72118000
O	23.77717776	4.34349000	2.72118000
O	6.62374588	9.58701000	2.72118000
O	21.87123776	9.58701000	2.72118000
O	10.43561588	8.81302000	0.37332000
O	25.68310776	8.81302000	0.37332000
O	14.24749588	8.81302000	0.37332000
O	29.49498776	8.81302000	0.37332000
O	18.05936588	8.81302000	0.37332000
O	12.34155588	3.56949000	0.37332000
O	27.58904776	3.56949000	0.37332000
O	16.15343588	3.56949000	0.37332000
O	19.96530588	3.56949000	0.37332000
O	12.34155588	0.60134000	1.26110000
O	27.58904776	0.60134000	1.26110000
O	16.15343588	0.60134000	1.26110000
O	19.96530588	0.60134000	1.26110000
O	10.43561588	5.84486000	1.26111000
O	25.68310776	5.84486000	1.26111000
O	14.24749588	5.84486000	1.26111000
O	29.49498776	5.84486000	1.26111000
O	18.05936588	5.84486000	1.26111000
O	10.43561588	2.06812000	1.83340000
O	25.68310776	2.06812000	1.83340000
O	14.24749588	2.06812000	1.83340000
O	29.49498776	2.06812000	1.83340000
O	18.05936588	2.06812000	1.83340000
O	12.34155588	7.31164000	1.83340000
O	27.58904776	7.31164000	1.83340000
O	16.15343588	7.31164000	1.83340000
O	19.96530588	7.31164000	1.83340000
O	12.34155588	4.34349000	2.72118000
O	27.58904776	4.34349000	2.72118000
O	16.15343588	4.34349000	2.72118000
O	19.96530588	4.34349000	2.72118000
O	10.43561588	9.58701000	2.72118000
O	25.68310776	9.58701000	2.72118000
O	14.24749588	9.58701000	2.72118000
O	29.49498776	9.58701000	2.72118000
O	18.05936588	9.58701000	2.72118000
Ti	2.81187400	10.68408607	1.10336000
Ti	2.81187400	21.17113214	1.10336000
Ti	0.90594400	15.92761607	1.10336000
Ti	0.90594400	26.41466214	1.10336000
Ti	4.71781400	15.92761607	1.10336000
Ti	4.71781400	26.41466214	1.10336000
Ti	0.90594400	12.95945607	1.99114000
Ti	0.90594400	23.44650214	1.99114000
Ti	4.71781400	12.95945607	1.99114000
Ti	4.71781400	23.44650214	1.99114000
Ti	2.81187400	18.20298607	1.99115000
Ti	2.81187400	28.69003214	1.99115000
O	2.81187400	19.30006607	0.37332000
O	2.81187400	29.78711214	0.37332000
O	0.90594400	14.05653607	0.37332000
O	0.90594400	24.54358214	0.37332000
O	4.71781400	14.05653607	0.37332000
O	4.71781400	24.54358214	0.37332000
O	0.90594400	11.08838607	1.26110000
O	0.90594400	21.57543214	1.26110000
O	4.71781400	11.08838607	1.26110000
O	4.71781400	21.57543214	1.26110000
O	2.81187400	16.33190607	1.26111000
O	2.81187400	26.81895214	1.26111000
O	2.81187400	12.55516607	1.83340000
O	2.81187400	23.04221214	1.83340000
O	0.90594400	17.79868607	1.83340000
O	0.90594400	28.28573214	1.83340000
O	4.71781400	17.79868607	1.83340000
O	4.71781400	28.28573214	1.83340000
O	0.90594400	14.83053607	2.72118000
O	0.90594400	25.31758214	2.72118000
O	4.71781400	14.83053607	2.72118000
O	4.71781400	25.31758214	2.72118000
O	2.81187400	20.07405607	2.72118000
O	2.81187400	30.56110214	2.72118000
Ti	6.62374588	10.68408607	1.10336000
Ti	6.62374588	21.17113214	1.10336000
Ti	21.87123776	10.68408607	1.10336000
Ti	21.87123776	21.17113214	1.10336000
Ti	8.52968588	15.92761607	1.10336000
Ti	8.52968588	26.41466214	1.10336000
Ti	23.77717776	15.92761607	1.10336000
Ti	23.77717776	26.41466214	1.10336000
Ti	8.52968588	12.95945607	1.99114000
Ti	8.52968588	23.44650214	1.99114000
Ti	23.77717776	12.95945607	1.99114000
Ti	23.77717776	23.44650214	1.99114000
Ti	6.62374588	18.20298607	1.99115000
Ti	6.62374588	28.69003214	1.99115000
Ti	21.87123776	18.20298607	1.99115000
Ti	21.87123776	28.69003214	1.99115000
Ti	10.43561588	10.68408607	1.10336000
Ti	10.43561588	21.17113214	1.10336000
Ti	25.68310776	10.68408607	1.10336000
Ti	25.68310776	21.17113214	1.10336000
Ti	14.24749588	10.68408607	1.10336000
Ti	14.24749588	21.17113214	1.10336000
Ti	29.49498776	10.68408607	1.10336000
Ti	29.49498776	21.17113214	1.10336000
Ti	18.05936588	10.68408607	1.10336000
Ti	18.05936588	21.17113214	1.10336000
Ti	12.34155588	15.92761607	1.10336000
Ti	12.34155588	26.41466214	1.10336000
Ti	27.58904776	15.92761607	1.10336000
Ti	27.58904776	26.41466214	1.10336000
Ti	16.15343588	15.92761607	1.10336000
Ti	16.15343588	26.41466214	1.10336000
Ti	19.96530588	15.92761607	1.10336000
Ti	19.96530588	26.41466214	1.10336000
Ti	12.34155588	12.95945607	1.99114000
Ti	12.34155588	23.44650214	1.99114000
Ti	27.58904776	12.95945607	1.99114000
Ti	27.58904776	23.44650214	1.99114000
Ti	16.15343588	12.95945607	1.99114000
Ti	16.15343588	23.44650214	1.99114000
Ti	19.96530588	12.95945607	1.99114000
Ti	19.96530588	23.44650214	1.99114000
Ti	10.43561588	18.20298607	1.99115000
Ti	10.43561588	28.69003214	1.99115000
Ti	25.68310776	18.20298607	1.99115000
Ti	25.68310776	28.69003214	1.99115000
Ti	14.24749588	18.20298607	1.99115000
Ti	14.24749588	28.69003214	1.99115000
Ti	29.49498776	18.20298607	1.99115000
Ti	29.49498776	28.69003214	1.99115000
Ti	18.05936588	18.20298607	1.99115000
Ti	18.05936588	28.69003214	1.99115000
O	6.62374588	19.30006607	0.37332000
O	6.62374588	29.78711214	0.37332000
O	21.87123776	19.30006607	0.37332000
O	21.87123776	29.78711214	0.37332000
O	8.52968588	14.05653607	0.37332000
O	8.52968588	24.54358214	0.37332000
O	23.77717776	14.05653607	0.37332000
O	23.77717776	24.54358214	0.37332000
O	8.52968588	11.08838607	1.26110000
O	8.52968588	21.57543214	1.26110000
O	23.77717776	11.08838607	1.26110000
O	23.77717776	21.57543214	1.26110000
O	6.62374588	16.33190607	1.26111000
O	6.62374588	26.81895214	1.26111000
O	21.87123776	16.33190607	1.26111000
O	21.87123776	26.81895214	1.26111000
O	6.62374588	12.55516607	1.83340000
O	6.62374588	23.04221214	1.83340000
O	21.87123776	12.55516607	1.83340000
O	21.87123776	23.04221214	1.83340000
O	8.52968588	17.79868607	1.83340000
O	8.52968588	28.28573214	1.83340000
O	23.77717776	17.79868607	1.83340000
O	23.77717776	28.28573214	1.83340000
O	8.52968588	14.83053607	2.72118000
O	8.52968588	25.31758214	2.72118000
O	23.77717776	14.83053607	2.72118000
O	23.77717776	25.31758214	2.72118000
O	6.62374588	20.07405607	2.72118000
O	6.62374588	30.56110214	2.72118000
O	21.87123776	20.07405607	2.72118000
O	21.87123776	30.56110214	2.72118000
O	10.43561588	19.30006607	0.37332000
O	10.43561588	29.78711214	0.37332000
O	25.68310776	19.30006607	0.37332000
O	25.68310776	29.78711214	0.37332000
O	14.24749588	19.30006607	0.37332000
O	14.24749588	29.78711214	0.37332000
O	29.49498776	19.30006607	0.37332000
O	29.49498776	29.78711214	0.37332000
O	18.05936588	19.30006607	0.37332000
O	18.05936588	29.78711214	0.37332000
O	12.34155588	14.05653607	0.37332000
O	12.34155588	24.54358214	0.37332000
O	27.58904776	14.05653607	0.37332000
O	27.58904776	24.54358214	0.37332000
O	16.15343588	14.05653607	0.37332000
O	16.15343588	24.54358214	0.37332000
O	19.96530588	14.05653607	0.37332000
O	19.96530588	24.54358214	0.37332000
O	12.34155588	11.08838607	1.26110000
O	12.34155588	21.57543214	1.26110000
O	27.58904776	11.08838607	1.26110000
O	27.58904776	21.57543214	1.26110000
O	16.15343588	11.08838607	1.26110000
O	16.15343588	21.57543214	1.26110000
O	19.96530588	11.08838607	1.26110000
O	19.96530588	21.57543214	1.26110000
O	10.43561588	16.33190607	1.26111000
O	10.43561588	26.81895214	1.26111000
O	25.68310776	16.33190607	1.26111000
O	25.68310776	26.81895214	1.26111000
O	14.24749588	16.33190607	1.26111000
O	14.24749588	26.81895214	1.26111000
O	29.49498776	16.33190607	1.26111000
O	29.49498776	26.81895214	1.26111000
O	18.05936588	16.33190607	1.26111000
O	18.05936588	26.81895214	1.26111000
O	10.43561588	12.55516607	1.83340000
O	10.43561588	23.04221214	1.83340000
O	25.68310776	12.55516607	1.83340000
O	25.68310776	23.04221214	1.83340000
O	14.24749588	12.55516607	1.83340000
O	14.24749588	23.04221214	1.83340000
O	29.49498776	12.55516607	1.83340000
O	29.49498776	23.04221214	1.83340000
O	18.05936588	12.55516607	1.83340000
O	18.05936588	23.04221214	1.83340000
O	12.34155588	17.79868607	1.83340000
O	12.34155588	28.28573214	1.83340000
O	27.58904776	17.79868607	1.83340000
O	27.58904776	28.28573214	1.83340000
O	16.15343588	17.79868607	1.83340000
O	16.15343588	28.28573214	1.83340000
O	19.96530588	17.79868607	1.83340000
O	19.96530588	28.28573214	1.83340000
O	12.34155588	14.83053607	2.72118000
O	12.34155588	25.31758214	2.72118000
O	27.58904776	14.83053607	2.72118000
O	27.58904776	25.31758214	2.72118000
O	16.15343588	14.83053607	2.72118000
O	16.15343588	25.31758214	2.72118000
O	19.96530588	14.83053607	2.72118000
O	19.96530588	25.31758214	2.72118000
O	10.43561588	20.07405607	2.72118000
O	10.43561588	30.56110214	2.72118000
O	25.68310776	20.07405607	2.72118000
O	25.68310776	30.56110214	2.72118000
O	14.24749588	20.07405607	2.72118000
O	14.24749588	30.56110214	2.72118000
O	29.49498776	20.07405607	2.72118000
O	29.49498776	30.56110214	2.72118000
O	18.05936588	20.07405607	2.72118000
O	18.05936588	30.56110214	2.72118000
Ti	6.60101646	9.18267673	4.67496545
Ti	6.55721958	6.28511333	5.45092956
Ti	2.82529099	9.17706619	4.85588629
Ti	0.80371194	3.93617121	4.75181845
Ti	4.66535355	4.00142563	4.63123619
Ti	0.84723024	0.97496080	5.46514813
Ti	4.67750442	1.09079227	5.52960769
Ti	2.77850907	6.20006524	5.57877248
O	6.56629284	7.40125386	3.94914225
O	6.59408462	4.39382230	4.87348225
O	6.52416795	0.47705349	5.85945747
O	6.66504605	8.02624237	6.36988925
O	2.70251670	7.32042465	3.92981285
O	0.79576173	2.02049274	3.86994548
O	4.70867682	2.09523942	3.94646495
O	0.94562238	9.63378292	4.95439636
O	4.68816332	9.72227348	4.61476704
O	2.72301117	4.35296631	4.67709685
O	2.75975202	0.51950540	5.84226831
O	0.82277535	5.69774491	5.73689840
O	4.70611508	5.81713628	5.72629131
O	0.95688039	2.77159434	6.31925399
O	4.73322182	2.82082706	6.31213606
O	3.09870327	7.98733289	6.35681678
Ti	21.84759841	9.20035624	4.69496027
Ti	8.45489864	3.93657787	4.76628356
Ti	23.68421029	3.95814966	4.74174181
Ti	8.41084410	1.03856794	5.50185956
Ti	23.73654445	1.00603528	5.34620778
Ti	21.82167369	6.33092911	5.48524550
Ti	10.39258144	9.20262334	4.77188661
Ti	25.68696735	9.27595763	4.69862219
Ti	14.25811145	9.19148654	4.75650462
Ti	29.56594785	9.22084159	4.81830708
Ti	17.99551645	9.14911474	4.78846684
Ti	12.34924226	3.96090800	4.70637566
Ti	27.49262265	3.91385567	4.65895208
Ti	16.17111028	4.02378810	4.73209687
Ti	19.91395699	4.00748039	4.66837578
Ti	12.30735378	1.04409585	5.44730482
Ti	27.49109861	1.02416132	5.35771489
Ti	16.18113752	1.06876808	5.40787047
Ti	20.02319537	1.14577301	5.64452519
Ti	10.43930836	6.35123670	5.58262743
Ti	25.63771004	6.33275152	5.52354608
Ti	14.14512989	6.26160004	5.54497682
Ti	29.36616272	6.22786904	5.52014173
Ti	17.99675762	6.24631869	5.57393990
O	21.64986581	7.34921241	3.95299076
O	8.47534539	2.09667660	3.98482359
O	23.69900913	2.08736299	3.84080352
O	8.44144737	9.57873934	4.84577645
O	23.73381816	9.57832430	4.74273072
O	21.79253468	4.35138496	5.00739862
O	21.88850736	0.55037013	5.88367284
O	8.47639373	5.87266676	5.69252944
O	23.68686434	5.77577914	5.75086695
O	8.40170280	2.78551729	6.44307103
O	23.89371776	2.68406180	6.23786524
O	21.99071963	8.04967341	6.43153464
O	10.50135989	7.20873284	3.93910726
O	25.79547004	7.38060596	3.97259723
O	14.07946578	7.27777132	3.93690494
O	29.29589106	7.33477456	3.97578829
O	17.88236901	7.28220316	3.94766185
O	12.29786275	2.10427471	3.86389395
O	27.40541485	2.00970379	3.85027430
O	16.27378830	2.06131193	3.84065410
O	20.04070062	2.07801710	3.94763772
O	12.32932974	9.51677031	4.81362713
O	27.63810333	9.78090095	4.70587509
O	16.13363277	9.75986145	4.59740576
O	19.98555156	9.51582260	4.84300026
O	10.40386512	4.39715488	4.80201602
O	25.55442164	4.36667365	4.91499731
O	14.17606066	4.32590255	4.85389823
O	29.34137376	4.28485973	4.78451157
O	18.02373927	4.46596975	4.76301511
O	10.35603371	0.56180159	5.66996557
O	25.58828841	0.49734009	5.66913027
O	14.23158319	0.59567188	5.81811510
O	29.47337752	0.51877271	5.62511488
O	18.15124279	0.62254512	5.71549390
O	12.22666144	5.70814634	5.94474562
O	27.52080451	5.68606813	5.80304614
O	15.98885296	5.63408016	5.93390739
O	19.93511644	5.90011600	5.88597163
O	12.21382235	2.73147360	6.42899085
O	27.57801087	2.71730213	6.23633299
O	15.94748483	2.79803210	6.33382546
O	19.86877302	2.87083530	6.34216031
O	10.33857385	8.07995977	6.36251663
O	25.73885160	8.11003565	6.27822938
O	14.46163042	8.07550741	6.35364833
O	29.41149806	8.09791117	6.39568868
O	17.83283877	8.03478744	6.38787432
Ti	6.54720139	19.70342399	4.78449115
Ti	6.57805743	30.18029163	4.65146265
Ti	6.55254216	16.68136355	5.36615687
Ti	6.64074163	27.33691804	5.67679180
Ti	2.86721979	19.70144569	4.68015573
Ti	2.83679312	30.21338963	4.69436937
Ti	0.91482723	14.37886801	4.68871793
Ti	0.99801994	25.02402463	4.73762019
Ti	4.66335239	14.44665239	4.68370748
Ti	4.66661832	25.03627558	4.70292665
Ti	0.92378985	11.49035777	5.59667010
Ti	0.93423030	21.92320705	5.56092381
Ti	4.69185911	11.59215749	5.57899914
Ti	4.65458234	22.14506688	5.59334644
Ti	2.88542781	16.82128441	5.53119465
Ti	2.90629045	27.32863066	5.43675663
O	6.62606876	17.84475451	3.88823754
O	6.67380904	28.33192745	4.08094138
O	6.61784104	14.77141036	4.80464313
O	6.70945032	25.50195870	4.92682858
O	6.55289819	11.02246128	5.75094041
O	6.56366262	21.54852482	5.90064497
O	6.51361928	18.33713973	6.42838853
O	6.40949318	29.07538979	6.46400688
O	2.68482672	17.85858550	3.93157061
O	2.95766325	28.31063997	3.89601163
O	0.96556879	12.49634816	3.97787206
O	1.05526760	23.03218441	3.99124862
O	4.64145245	12.54415138	3.95886141
O	4.64764003	23.11503665	4.00566354
O	0.93391088	20.21347654	4.66588015
O	0.86809430	30.59999277	4.74635759
O	4.65948884	20.34804121	4.70045066
O	4.71515601	30.58775694	4.64028406
O	2.78260567	15.09926758	4.67686956
O	2.88378560	25.39044619	4.75194324
O	2.86009080	10.97701536	6.02394630
O	2.75201966	21.45284479	5.90923775
O	1.01363406	16.51405004	6.11380974
O	0.98941676	26.86224076	5.66951419
O	4.72546602	16.11960623	5.77127928
O	4.73990501	26.75423656	5.86620846
O	1.03859823	13.28957310	6.35975859
O	1.03200882	23.77501216	6.31326439
O	4.47484073	13.35285556	6.33396393
O	4.64558437	23.96692970	6.37982588
O	3.10338684	18.70280069	6.30204026
O	2.74360321	29.13732238	6.23582534
Ti	21.88339684	19.69639123	4.74008280
Ti	21.82027717	30.18037834	4.85600274
Ti	8.48387108	14.44731530	4.70207940
Ti	8.55897957	24.97795964	4.74485117
Ti	23.77877826	14.51779250	4.80715795
Ti	23.80893583	24.90150479	4.65866565
Ti	8.44122236	11.51567873	5.47060370
Ti	8.52084734	22.08370670	5.53602431
Ti	23.70675851	11.57520471	5.51554105
Ti	23.81494656	22.04376739	5.51516697
Ti	21.89221673	16.84900435	5.45776285
Ti	21.95558372	27.26712551	5.57300157
Ti	10.48549165	19.82518242	4.73715972
Ti	10.36133127	30.31751982	4.83842483
Ti	25.74838226	19.71833953	4.73359547
Ti	25.73222055	30.13692301	4.76060002
Ti	14.40521935	19.70064337	4.87218282
Ti	14.13389828	30.21649261	4.70833549
Ti	29.53103671	19.70555342	4.77685749
Ti	29.48708459	30.14117536	4.67447405
Ti	18.11038356	19.67678626	4.91059038
Ti	18.01233040	30.23709889	4.79159673
Ti	12.30955081	14.44301479	4.86221825
Ti	12.30827773	25.03261436	4.89602448
Ti	27.76938970	14.51459213	4.74862892
Ti	27.63844424	24.97439780	4.85022380
Ti	16.12122514	14.54149082	4.74099630
Ti	16.18018833	24.99372126	4.69708510
Ti	20.07121488	14.46871782	4.80643287
Ti	19.96967111	25.05024130	4.81917510
Ti	12.28705255	11.44813198	5.56466779
Ti	12.41801960	22.07968490	5.46723694
Ti	27.48649191	11.59309886	5.62893659
Ti	27.68868235	22.04264644	5.46574598
Ti	16.07374153	11.65869147	5.49609824
Ti	16.16847694	22.14360947	5.50400288
Ti	19.99538424	11.52109793	5.48208723
Ti	19.92979310	22.12384753	5.49803950
Ti	10.34467020	16.84399169	5.48678085
Ti	10.46673888	27.41667742	5.52624848
Ti	25.75507383	16.83381164	5.53651508
Ti	25.72429588	27.17643703	5.54102278
Ti	14.19559869	16.80178768	5.66834650
Ti	14.18925016	27.33867823	5.55366819
Ti	29.61464088	16.80749986	5.53601503
Ti	29.56797248	27.25794743	5.40707895
Ti	18.23399973	16.64819703	5.38728047
Ti	18.13331365	27.31524725	5.58873189
O	21.70273803	17.79989148	3.88136552
O	21.72686327	28.23639382	3.93773564
O	8.48022313	12.58064494	3.90032406
O	8.41257211	23.07953132	3.94265257
O	23.85396973	12.67874172	3.95846501
O	23.80429674	23.01148747	3.96162768
O	8.42742377	20.19396061	4.77107761
O	8.48166615	30.62482692	4.81009136
O	23.86427029	20.12208502	4.86803615
O	23.77763995	30.58866854	4.67860125
O	21.89590555	14.86331166	4.70122134
O	21.91125429	25.38138449	4.84837115
O	21.81961699	10.98041315	5.81726815
O	21.87129770	21.60959450	5.76317841
O	8.44426104	16.22546198	5.60875012
O	8.52733735	26.96506163	5.71382308
O	23.77140731	16.44026616	5.68376203
O	23.78249143	26.72808242	5.87787767
O	8.30574163	13.23657806	6.26356105
O	8.53759303	23.82495734	6.28165507
O	23.83359656	13.26050060	6.35594674
O	23.67902157	23.79449772	6.25794311
O	21.82871357	18.51914284	6.37423033
O	21.63340937	28.97165843	6.41891514
O	10.44518707	17.86427426	3.95523696
O	10.42147333	28.37238167	3.97689737
O	25.73678073	17.90984322	3.88307893
O	25.65725371	28.18962226	3.85828033
O	14.24299452	17.87762676	3.97325233
O	14.02265346	28.34494148	3.97041173
O	29.49285297	17.83842624	3.92961659
O	29.63385549	28.29563524	3.86659049
O	18.23242384	17.78987875	3.93765888
O	18.26678414	28.42557549	3.91989272
O	12.21059006	12.50969599	3.93494179
O	12.26861683	23.10873099	3.97294107
O	27.44306715	12.61809788	4.03701616
O	27.71292952	23.08656943	3.88581952
O	16.00229313	12.68561395	3.87049765
O	16.06041666	23.18112623	3.89883414
O	20.07921405	12.62612668	3.96317908
O	19.87915184	23.16712088	3.98966294
O	12.43318479	20.23275823	4.77165514
O	12.29413773	30.59956016	4.96810933
O	27.62881557	20.18448662	4.83001428
O	27.59705307	30.57874712	4.77635991
O	16.26113671	20.12661070	4.85080345
O	16.07116450	30.67107983	4.77177761
O	19.96603704	20.19850521	4.93219269
O	19.97759238	30.68749135	4.81696544
O	10.37324874	14.87307102	4.89806166
O	10.40140514	25.47467667	4.85317481
O	25.68758935	14.91114686	4.96252304
O	25.66693112	25.29000413	4.69622300
O	14.17903611	14.89270781	4.77782813
O	14.25839406	25.42475487	5.00060903
O	29.63219699	14.96424113	4.84483910
O	29.48952074	25.43394953	4.80466880
O	18.12791600	14.82572743	4.64016514
O	18.13299241	25.42954328	4.73065632
O	10.37086817	11.05073201	5.67802204
O	10.45992367	21.68355206	5.69324101
O	25.61453139	10.99283762	5.72884645
O	25.63197357	21.54192076	5.98409129
O	14.23430488	11.03045347	5.73217843
O	14.33593802	21.62477635	5.71376473
O	29.49483834	11.06163969	5.86730687
O	29.46086011	21.44201334	5.93475731
O	18.02752518	11.13431069	5.54540563
O	18.04819921	21.66337872	5.91656741
O	12.28920906	16.47213493	5.54570325
O	12.28693964	26.84526344	5.86084911
O	27.68997820	16.45011766	5.72735994
O	27.69624029	26.84622395	5.60234478
O	16.24250054	16.34258744	5.56413638
O	16.24647816	26.81681648	5.77844649
O	20.04774907	16.26807495	5.94163562
O	20.06431514	26.75862286	5.96729404
O	12.18912195	13.25492246	6.34732681
O	12.35676354	23.71960339	6.48809441
O	28.00016759	13.42653479	6.31011079
O	27.65646449	23.75768608	6.21212746
O	16.02227189	13.40347793	6.28351740
O	16.30247999	23.81424144	6.33133063
O	19.98864994	13.22047241	6.52919280
O	20.11906482	23.91268350	6.45107966
O	10.41856134	18.54519386	6.43004791
O	10.34455089	29.10044428	6.45278562
O	25.72766663	18.46266687	6.35059934
O	25.63782969	28.98277153	6.29740090
O	14.24588450	18.66990362	6.41630192
O	14.30709166	29.16037349	6.39345150
O	29.62634798	18.52490887	6.38728782
O	29.47009528	29.12648587	6.29116317
O	18.01800239	18.49615312	6.40209420
O	18.10235395	29.02857176	6.35505585
H	16.14976318	14.57309966	7.72644434
H	16.96305519	16.52822115	10.40204022
H	12.91798696	17.19007022	9.34412245
O	14.28484117	16.06227489	7.53911298
O	16.10341334	15.21598400	8.48598561
C	15.08464831	15.98699779	8.58460302
C	14.92078392	16.71140043	9.80076378
C	16.01285280	16.97232327	10.57525935
C	13.63645812	17.26257567	10.14854452
N	13.30899848	19.23084715	15.52277979
N	15.32660398	22.46405493	16.89179265
N	15.63400209	20.95218530	14.57041446
N	13.21502166	20.78627875	18.03660173
C	20.83470244	23.82514411	15.13232044
C	14.41514872	24.88880408	22.30265575
C	8.30618255	17.80388241	18.28302802
C	18.43932939	23.48236755	14.85172015
C	13.95035097	23.92298076	20.10777071
C	10.66321758	17.91198951	17.98064468
C	19.49102124	25.40986668	13.84289439
C	12.81237355	25.91981705	20.82504830
C	9.71150719	16.32161270	19.48472380
C	14.47050704	19.01767778	13.37469576
C	17.18461399	22.70235664	15.22186347
C	14.12744930	22.86392967	19.07374034
C	11.82338207	18.73481823	17.51636392
C	15.36697857	20.10249434	13.46578457
C	16.64444857	21.81582183	14.30905106
C	13.40737140	21.65249586	19.09635061
C	12.27267297	19.82224784	18.33534776
C	16.28642127	20.51711390	12.44473532
C	17.10838416	21.53745673	12.95096578
C	12.52991160	21.23313759	20.15623795
C	11.83071123	20.11804871	19.64219235
C	13.49783876	18.55524875	14.29707576
C	16.49190949	23.08380190	16.39337904
C	15.05525329	23.18549960	18.04670868
C	12.27525147	18.57636613	16.18156766
C	12.61554364	17.40974970	14.27386335
C	16.83436473	24.24545414	17.12973387
C	15.88747973	24.38552814	18.10792990
C	11.85884667	17.44213867	15.40472004
H	12.62113835	16.73013839	13.44077893
H	17.71115266	24.90767923	16.91231265
H	15.84012026	25.10249614	18.94079055
H	11.04617256	16.72074777	15.68702855
H	16.23210925	20.17241425	11.38626505
H	17.84138622	22.05032219	12.30008608
H	12.47537956	21.64672074	21.16909448
H	10.99175335	19.47570408	20.02963056
H	19.53243977	26.38666973	13.28888136
H	12.06500607	26.71490342	20.62921176
H	9.89308995	15.43382348	20.12398902
H	21.72285431	23.59727571	15.75598952
H	14.90153716	24.82261137	23.20442247
H	7.28755037	18.05161825	17.99355272
H	14.97857101	20.89544755	15.38853203
H	13.55454594	20.93188094	17.05728146
C	21.93809387	25.98330328	14.24140731
H	22.65815724	26.03858099	15.13329334
H	21.57509521	26.99651205	13.89120331
H	22.49365870	25.43414878	13.41208556
C	19.84107198	21.94697729	16.34767951
H	19.34427489	21.03891225	15.96699576
H	19.44469702	22.22910218	17.35235834
H	20.93160032	21.82967446	16.59338890
C	17.11708295	24.85837868	13.25880689
H	16.95747794	25.91855613	13.38575367
H	16.22902967	24.37534155	13.60501119
H	17.23122267	24.67390676	12.17374767
C	12.21086433	16.33712335	19.35889168
H	12.97900104	16.83433900	18.76883848
H	12.31599820	15.24049094	19.08899780
H	12.31592609	16.45434764	20.44065071
C	9.14276854	19.76931842	17.02881206
H	8.13909729	20.09406140	17.13333378
H	9.27898490	19.77582117	15.94842330
H	9.70849105	20.59456557	17.44572929
C	7.23967267	15.94504292	19.58178932
H	7.52511914	15.04087338	20.14342756
H	6.59234120	15.61572069	18.76470731
H	6.58926824	16.61595360	20.16419861
C	12.29516553	24.99451980	18.52743082
H	11.52630229	25.71323258	18.58415602
H	11.93069167	23.99979765	18.22193916
H	13.01296775	25.25520144	17.77128008
C	15.84023240	23.02240367	21.56116384
H	16.10766474	22.99190174	22.68049725
H	16.76088205	23.35278565	21.13065073
H	15.71748335	22.04252431	21.11653787
C	13.11594534	27.02671123	23.02318973
H	13.46150722	26.78366698	24.00764519
H	12.01978497	27.10031442	23.09486229
H	13.55454068	27.96957279	22.67618604
C	20.71900827	25.05329723	14.45079555
C	19.67182005	23.06604852	15.40188344
C	18.33959152	24.56290277	13.96774148
C	13.03302419	24.96479199	19.83756316
C	14.64386189	23.93184635	21.33469005
C	13.51213632	25.92758563	22.03343542
C	10.82708049	16.84045055	18.88863138
C	9.38027068	18.47350410	17.74093536
C	8.41736400	16.68740282	19.08135629
H	16.77925984	17.96984788	12.33934501
H	12.44844803	18.33851248	11.61210911
C	14.59573854	18.19452200	12.11868533
C	15.87055734	17.68541721	11.75800181
C	13.44114404	17.92581734	11.33223057

Ti O H C N 0
6-31G*
****

