%chk=f00019054.chk
%mem=24GB
%nproc=12
#p b3lyp/6-31G*

title

0 1
Ti	2.81187400	0.19704000	1.10336000
Ti	0.90594400	5.44057000	1.10336000
Ti	4.71781400	5.44057000	1.10336000
Ti	0.90594400	2.47241000	1.99114000
Ti	4.71781400	2.47241000	1.99114000
Ti	2.81187400	7.71594000	1.99115000
O	2.81187400	8.81302000	0.37332000
O	0.90594400	3.56949000	0.37332000
O	4.71781400	3.56949000	0.37332000
O	0.90594400	0.60134000	1.26110000
O	4.71781400	0.60134000	1.26110000
O	2.81187400	5.84486000	1.26111000
O	2.81187400	2.06812000	1.83340000
O	0.90594400	7.31164000	1.83340000
O	4.71781400	7.31164000	1.83340000
O	0.90594400	4.34349000	2.72118000
O	4.71781400	4.34349000	2.72118000
O	2.81187400	9.58701000	2.72118000
Ti	6.62374588	0.19704000	1.10336000
Ti	21.87123776	0.19704000	1.10336000
Ti	8.52968588	5.44057000	1.10336000
Ti	23.77717776	5.44057000	1.10336000
Ti	8.52968588	2.47241000	1.99114000
Ti	23.77717776	2.47241000	1.99114000
Ti	6.62374588	7.71594000	1.99115000
Ti	21.87123776	7.71594000	1.99115000
Ti	10.43561588	0.19704000	1.10336000
Ti	25.68310776	0.19704000	1.10336000
Ti	14.24749588	0.19704000	1.10336000
Ti	29.49498776	0.19704000	1.10336000
Ti	18.05936588	0.19704000	1.10336000
Ti	12.34155588	5.44057000	1.10336000
Ti	27.58904776	5.44057000	1.10336000
Ti	16.15343588	5.44057000	1.10336000
Ti	19.96530588	5.44057000	1.10336000
Ti	12.34155588	2.47241000	1.99114000
Ti	27.58904776	2.47241000	1.99114000
Ti	16.15343588	2.47241000	1.99114000
Ti	19.96530588	2.47241000	1.99114000
Ti	10.43561588	7.71594000	1.99115000
Ti	25.68310776	7.71594000	1.99115000
Ti	14.24749588	7.71594000	1.99115000
Ti	29.49498776	7.71594000	1.99115000
Ti	18.05936588	7.71594000	1.99115000
O	6.62374588	8.81302000	0.37332000
O	21.87123776	8.81302000	0.37332000
O	8.52968588	3.56949000	0.37332000
O	23.77717776	3.56949000	0.37332000
O	8.52968588	0.60134000	1.26110000
O	23.77717776	0.60134000	1.26110000
O	6.62374588	5.84486000	1.26111000
O	21.87123776	5.84486000	1.26111000
O	6.62374588	2.06812000	1.83340000
O	21.87123776	2.06812000	1.83340000
O	8.52968588	7.31164000	1.83340000
O	23.77717776	7.31164000	1.83340000
O	8.52968588	4.34349000	2.72118000
O	23.77717776	4.34349000	2.72118000
O	6.62374588	9.58701000	2.72118000
O	21.87123776	9.58701000	2.72118000
O	10.43561588	8.81302000	0.37332000
O	25.68310776	8.81302000	0.37332000
O	14.24749588	8.81302000	0.37332000
O	29.49498776	8.81302000	0.37332000
O	18.05936588	8.81302000	0.37332000
O	12.34155588	3.56949000	0.37332000
O	27.58904776	3.56949000	0.37332000
O	16.15343588	3.56949000	0.37332000
O	19.96530588	3.56949000	0.37332000
O	12.34155588	0.60134000	1.26110000
O	27.58904776	0.60134000	1.26110000
O	16.15343588	0.60134000	1.26110000
O	19.96530588	0.60134000	1.26110000
O	10.43561588	5.84486000	1.26111000
O	25.68310776	5.84486000	1.26111000
O	14.24749588	5.84486000	1.26111000
O	29.49498776	5.84486000	1.26111000
O	18.05936588	5.84486000	1.26111000
O	10.43561588	2.06812000	1.83340000
O	25.68310776	2.06812000	1.83340000
O	14.24749588	2.06812000	1.83340000
O	29.49498776	2.06812000	1.83340000
O	18.05936588	2.06812000	1.83340000
O	12.34155588	7.31164000	1.83340000
O	27.58904776	7.31164000	1.83340000
O	16.15343588	7.31164000	1.83340000
O	19.96530588	7.31164000	1.83340000
O	12.34155588	4.34349000	2.72118000
O	27.58904776	4.34349000	2.72118000
O	16.15343588	4.34349000	2.72118000
O	19.96530588	4.34349000	2.72118000
O	10.43561588	9.58701000	2.72118000
O	25.68310776	9.58701000	2.72118000
O	14.24749588	9.58701000	2.72118000
O	29.49498776	9.58701000	2.72118000
O	18.05936588	9.58701000	2.72118000
Ti	2.81187400	10.68408607	1.10336000
Ti	2.81187400	21.17113214	1.10336000
Ti	0.90594400	15.92761607	1.10336000
Ti	0.90594400	26.41466214	1.10336000
Ti	4.71781400	15.92761607	1.10336000
Ti	4.71781400	26.41466214	1.10336000
Ti	0.90594400	12.95945607	1.99114000
Ti	0.90594400	23.44650214	1.99114000
Ti	4.71781400	12.95945607	1.99114000
Ti	4.71781400	23.44650214	1.99114000
Ti	2.81187400	18.20298607	1.99115000
Ti	2.81187400	28.69003214	1.99115000
O	2.81187400	19.30006607	0.37332000
O	2.81187400	29.78711214	0.37332000
O	0.90594400	14.05653607	0.37332000
O	0.90594400	24.54358214	0.37332000
O	4.71781400	14.05653607	0.37332000
O	4.71781400	24.54358214	0.37332000
O	0.90594400	11.08838607	1.26110000
O	0.90594400	21.57543214	1.26110000
O	4.71781400	11.08838607	1.26110000
O	4.71781400	21.57543214	1.26110000
O	2.81187400	16.33190607	1.26111000
O	2.81187400	26.81895214	1.26111000
O	2.81187400	12.55516607	1.83340000
O	2.81187400	23.04221214	1.83340000
O	0.90594400	17.79868607	1.83340000
O	0.90594400	28.28573214	1.83340000
O	4.71781400	17.79868607	1.83340000
O	4.71781400	28.28573214	1.83340000
O	0.90594400	14.83053607	2.72118000
O	0.90594400	25.31758214	2.72118000
O	4.71781400	14.83053607	2.72118000
O	4.71781400	25.31758214	2.72118000
O	2.81187400	20.07405607	2.72118000
O	2.81187400	30.56110214	2.72118000
Ti	6.62374588	10.68408607	1.10336000
Ti	6.62374588	21.17113214	1.10336000
Ti	21.87123776	10.68408607	1.10336000
Ti	21.87123776	21.17113214	1.10336000
Ti	8.52968588	15.92761607	1.10336000
Ti	8.52968588	26.41466214	1.10336000
Ti	23.77717776	15.92761607	1.10336000
Ti	23.77717776	26.41466214	1.10336000
Ti	8.52968588	12.95945607	1.99114000
Ti	8.52968588	23.44650214	1.99114000
Ti	23.77717776	12.95945607	1.99114000
Ti	23.77717776	23.44650214	1.99114000
Ti	6.62374588	18.20298607	1.99115000
Ti	6.62374588	28.69003214	1.99115000
Ti	21.87123776	18.20298607	1.99115000
Ti	21.87123776	28.69003214	1.99115000
Ti	10.43561588	10.68408607	1.10336000
Ti	10.43561588	21.17113214	1.10336000
Ti	25.68310776	10.68408607	1.10336000
Ti	25.68310776	21.17113214	1.10336000
Ti	14.24749588	10.68408607	1.10336000
Ti	14.24749588	21.17113214	1.10336000
Ti	29.49498776	10.68408607	1.10336000
Ti	29.49498776	21.17113214	1.10336000
Ti	18.05936588	10.68408607	1.10336000
Ti	18.05936588	21.17113214	1.10336000
Ti	12.34155588	15.92761607	1.10336000
Ti	12.34155588	26.41466214	1.10336000
Ti	27.58904776	15.92761607	1.10336000
Ti	27.58904776	26.41466214	1.10336000
Ti	16.15343588	15.92761607	1.10336000
Ti	16.15343588	26.41466214	1.10336000
Ti	19.96530588	15.92761607	1.10336000
Ti	19.96530588	26.41466214	1.10336000
Ti	12.34155588	12.95945607	1.99114000
Ti	12.34155588	23.44650214	1.99114000
Ti	27.58904776	12.95945607	1.99114000
Ti	27.58904776	23.44650214	1.99114000
Ti	16.15343588	12.95945607	1.99114000
Ti	16.15343588	23.44650214	1.99114000
Ti	19.96530588	12.95945607	1.99114000
Ti	19.96530588	23.44650214	1.99114000
Ti	10.43561588	18.20298607	1.99115000
Ti	10.43561588	28.69003214	1.99115000
Ti	25.68310776	18.20298607	1.99115000
Ti	25.68310776	28.69003214	1.99115000
Ti	14.24749588	18.20298607	1.99115000
Ti	14.24749588	28.69003214	1.99115000
Ti	29.49498776	18.20298607	1.99115000
Ti	29.49498776	28.69003214	1.99115000
Ti	18.05936588	18.20298607	1.99115000
Ti	18.05936588	28.69003214	1.99115000
O	6.62374588	19.30006607	0.37332000
O	6.62374588	29.78711214	0.37332000
O	21.87123776	19.30006607	0.37332000
O	21.87123776	29.78711214	0.37332000
O	8.52968588	14.05653607	0.37332000
O	8.52968588	24.54358214	0.37332000
O	23.77717776	14.05653607	0.37332000
O	23.77717776	24.54358214	0.37332000
O	8.52968588	11.08838607	1.26110000
O	8.52968588	21.57543214	1.26110000
O	23.77717776	11.08838607	1.26110000
O	23.77717776	21.57543214	1.26110000
O	6.62374588	16.33190607	1.26111000
O	6.62374588	26.81895214	1.26111000
O	21.87123776	16.33190607	1.26111000
O	21.87123776	26.81895214	1.26111000
O	6.62374588	12.55516607	1.83340000
O	6.62374588	23.04221214	1.83340000
O	21.87123776	12.55516607	1.83340000
O	21.87123776	23.04221214	1.83340000
O	8.52968588	17.79868607	1.83340000
O	8.52968588	28.28573214	1.83340000
O	23.77717776	17.79868607	1.83340000
O	23.77717776	28.28573214	1.83340000
O	8.52968588	14.83053607	2.72118000
O	8.52968588	25.31758214	2.72118000
O	23.77717776	14.83053607	2.72118000
O	23.77717776	25.31758214	2.72118000
O	6.62374588	20.07405607	2.72118000
O	6.62374588	30.56110214	2.72118000
O	21.87123776	20.07405607	2.72118000
O	21.87123776	30.56110214	2.72118000
O	10.43561588	19.30006607	0.37332000
O	10.43561588	29.78711214	0.37332000
O	25.68310776	19.30006607	0.37332000
O	25.68310776	29.78711214	0.37332000
O	14.24749588	19.30006607	0.37332000
O	14.24749588	29.78711214	0.37332000
O	29.49498776	19.30006607	0.37332000
O	29.49498776	29.78711214	0.37332000
O	18.05936588	19.30006607	0.37332000
O	18.05936588	29.78711214	0.37332000
O	12.34155588	14.05653607	0.37332000
O	12.34155588	24.54358214	0.37332000
O	27.58904776	14.05653607	0.37332000
O	27.58904776	24.54358214	0.37332000
O	16.15343588	14.05653607	0.37332000
O	16.15343588	24.54358214	0.37332000
O	19.96530588	14.05653607	0.37332000
O	19.96530588	24.54358214	0.37332000
O	12.34155588	11.08838607	1.26110000
O	12.34155588	21.57543214	1.26110000
O	27.58904776	11.08838607	1.26110000
O	27.58904776	21.57543214	1.26110000
O	16.15343588	11.08838607	1.26110000
O	16.15343588	21.57543214	1.26110000
O	19.96530588	11.08838607	1.26110000
O	19.96530588	21.57543214	1.26110000
O	10.43561588	16.33190607	1.26111000
O	10.43561588	26.81895214	1.26111000
O	25.68310776	16.33190607	1.26111000
O	25.68310776	26.81895214	1.26111000
O	14.24749588	16.33190607	1.26111000
O	14.24749588	26.81895214	1.26111000
O	29.49498776	16.33190607	1.26111000
O	29.49498776	26.81895214	1.26111000
O	18.05936588	16.33190607	1.26111000
O	18.05936588	26.81895214	1.26111000
O	10.43561588	12.55516607	1.83340000
O	10.43561588	23.04221214	1.83340000
O	25.68310776	12.55516607	1.83340000
O	25.68310776	23.04221214	1.83340000
O	14.24749588	12.55516607	1.83340000
O	14.24749588	23.04221214	1.83340000
O	29.49498776	12.55516607	1.83340000
O	29.49498776	23.04221214	1.83340000
O	18.05936588	12.55516607	1.83340000
O	18.05936588	23.04221214	1.83340000
O	12.34155588	17.79868607	1.83340000
O	12.34155588	28.28573214	1.83340000
O	27.58904776	17.79868607	1.83340000
O	27.58904776	28.28573214	1.83340000
O	16.15343588	17.79868607	1.83340000
O	16.15343588	28.28573214	1.83340000
O	19.96530588	17.79868607	1.83340000
O	19.96530588	28.28573214	1.83340000
O	12.34155588	14.83053607	2.72118000
O	12.34155588	25.31758214	2.72118000
O	27.58904776	14.83053607	2.72118000
O	27.58904776	25.31758214	2.72118000
O	16.15343588	14.83053607	2.72118000
O	16.15343588	25.31758214	2.72118000
O	19.96530588	14.83053607	2.72118000
O	19.96530588	25.31758214	2.72118000
O	10.43561588	20.07405607	2.72118000
O	10.43561588	30.56110214	2.72118000
O	25.68310776	20.07405607	2.72118000
O	25.68310776	30.56110214	2.72118000
O	14.24749588	20.07405607	2.72118000
O	14.24749588	30.56110214	2.72118000
O	29.49498776	20.07405607	2.72118000
O	29.49498776	30.56110214	2.72118000
O	18.05936588	20.07405607	2.72118000
O	18.05936588	30.56110214	2.72118000
Ti	6.73104674	9.25552500	4.80970040
Ti	6.59324538	6.36661943	5.52277371
Ti	2.90879564	9.28219363	4.76348964
Ti	0.88397924	4.06324891	4.80926840
Ti	4.70809958	3.99286046	4.85481504
Ti	1.00712529	1.02252661	5.48720398
Ti	4.85236288	1.09930695	5.56604399
Ti	2.84823274	6.42852830	5.57285907
O	6.65824038	7.40168565	3.94352351
O	6.66562169	4.44112948	4.64159519
O	6.78628666	0.56516266	5.75073333
O	6.59447884	8.00228491	6.38369683
O	2.84362318	7.32051670	3.88374381
O	1.06351795	2.14926018	3.95448377
O	4.62381773	2.16408698	3.96920219
O	0.90023378	9.62585303	4.68818666
O	4.74995911	9.68546730	4.79484083
O	2.86448366	4.48237971	4.68028757
O	2.93232195	0.57043150	5.69927785
O	1.00187313	5.72788320	5.88559552
O	4.73133745	5.81665947	5.81762941
O	1.02365367	2.79390873	6.33670341
O	4.90176989	2.83995619	6.35438604
O	2.94794158	8.18143069	6.45552173
Ti	21.93513363	9.08871151	4.70780604
Ti	8.56481009	3.99029643	4.71479873
Ti	23.82073777	3.98777724	4.64702966
Ti	8.69705707	1.08033848	5.55474063
Ti	23.72605750	1.05196445	5.45311647
Ti	21.85200839	6.20907025	5.48337276
Ti	10.55004530	9.27304815	4.68558210
Ti	25.70479663	9.23551842	4.71673912
Ti	14.34462107	9.24545888	4.72304131
Ti	29.44352062	9.15547173	4.77023059
Ti	18.18133835	9.12705265	4.72250496
Ti	12.29139599	4.13530437	4.70134827
Ti	27.68755769	3.92789468	4.77731876
Ti	16.14471784	4.02370960	4.70298350
Ti	19.98933864	3.89816617	4.70798893
Ti	12.36923303	1.28043028	5.60770860
Ti	27.54484353	1.04618279	5.58518144
Ti	16.15587210	1.13891715	5.63145850
Ti	19.96406778	1.03934035	5.46018446
Ti	10.43946857	6.41357786	5.71238300
Ti	25.66502986	6.30852338	5.41191707
Ti	14.27079188	6.32932789	5.47142255
Ti	29.47349416	6.26851400	5.53659070
Ti	18.11348068	6.25443849	5.54785035
O	21.83220543	7.32474472	3.95817131
O	8.49256966	2.01195708	3.95315179
O	23.50497858	2.10396988	3.91096448
O	8.61942895	9.61915250	4.79665096
O	23.73649566	9.53189307	4.80418981
O	21.86730161	4.41570083	4.70990724
O	21.92161611	0.58517969	5.87511386
O	8.48666987	5.88960057	5.86112104
O	23.76590834	5.72838954	5.69095198
O	8.74501110	2.87221641	6.36284135
O	23.81424065	2.87184356	6.26694029
O	21.83988556	7.98651386	6.36732067
O	10.57991749	7.37395256	3.94401646
O	25.87726199	7.34490615	3.90604309
O	14.34981702	7.42006708	3.96529636
O	29.54512243	7.33908631	3.96404143
O	18.11400239	7.25438277	3.93498994
O	12.40942816	2.12630140	3.98011509
O	27.60953897	2.12472154	3.92279272
O	16.11190604	2.03876565	3.96120420
O	19.85297934	2.00681208	3.95090866
O	12.41377330	9.74586723	4.98548146
O	27.53640004	9.77981645	4.68821978
O	16.22409995	9.50141695	4.89996913
O	20.01220713	9.64864033	4.68576052
O	10.40300592	4.58102521	4.61612805
O	25.75611667	4.46253354	4.69101670
O	14.25110342	4.36449563	5.03517086
O	29.53332823	4.42415530	4.77580474
O	18.13755143	4.42414486	4.75225294
O	10.56525535	0.57382848	5.76540032
O	25.56378625	0.53885541	5.85547735
O	14.26645400	1.11914183	6.18212726
O	29.52657932	0.63465885	5.43828016
O	18.13856213	0.51492765	5.76664895
O	12.32171775	5.92182317	5.54296741
O	27.52496335	5.93289637	5.74028747
O	16.19450285	5.73797667	5.75504902
O	19.95231659	5.60392331	5.90268551
O	12.01656154	3.07827274	6.40582234
O	27.62646105	2.67105024	6.47399717
O	16.34875914	2.92868768	6.34646730
O	20.05676428	2.78868764	6.39802011
O	10.49381708	8.17244853	6.42829293
O	25.62675580	8.05911799	6.29138125
O	14.23498475	7.98126682	6.38917028
O	29.36196993	8.08548046	6.39569185
O	18.18498802	7.97756821	6.34496221
Ti	6.51160027	19.69101809	4.64331149
Ti	6.74009585	30.21944115	4.70682036
Ti	6.73467360	16.80478843	5.64691980
Ti	6.73369649	27.34104524	5.53479099
Ti	2.62502369	19.79640747	4.74804146
Ti	2.87669790	30.23240953	4.65460504
Ti	0.89413147	14.31483003	4.68510690
Ti	1.02252459	24.96550105	4.68753091
Ti	4.59556805	14.43641351	4.84902055
Ti	4.68069485	24.90774486	4.73943599
Ti	0.90067822	11.43179476	5.48063810
Ti	0.81506549	22.09738552	5.49977927
Ti	4.76211751	11.52426493	5.64670422
Ti	4.74417347	21.99774136	5.50987845
Ti	2.88317977	16.87472408	5.58805038
Ti	2.94554120	27.37296777	5.54712710
O	6.67664767	17.73205017	4.00158135
O	6.58953620	28.39891867	3.96761462
O	6.54276769	14.90407073	4.90659687
O	6.67350679	25.41071921	4.81587629
O	6.67489650	10.99138242	5.80337210
O	6.64177381	21.53686402	5.91010036
O	6.79012949	18.59943385	6.38168212
O	6.82651322	29.07572867	6.36767716
O	2.69122139	17.90486634	4.00664412
O	2.94121708	28.36306007	3.93878185
O	0.84196831	12.49695464	3.89189025
O	0.75837249	23.20197509	3.97185774
O	4.88423988	12.59175399	3.93982909
O	4.61634323	23.07154111	3.95759007
O	0.77303308	20.30548305	4.69349797
O	0.87901828	30.52123072	4.88836241
O	4.64104655	20.14641061	4.82356087
O	4.84372564	30.67799999	4.82777652
O	2.65603134	15.07651550	4.87107903
O	2.88787715	25.39653454	4.81882682
O	2.82917591	11.07927671	5.80222975
O	2.79876449	21.69546398	5.76089853
O	0.90274505	16.85803446	6.17031922
O	0.93862311	26.80549212	5.81038771
O	4.69145625	16.31030799	5.70073953
O	4.79392996	26.81253222	5.76511932
O	0.97007382	13.27370955	6.27476075
O	1.03088105	23.89606541	6.27232025
O	4.51288766	13.32388975	6.26228015
O	4.67080428	23.76762417	6.43614920
O	3.02595502	18.72944808	6.28998808
O	2.76145080	29.07115219	6.41932469
Ti	21.83029024	19.65034128	4.74786432
Ti	21.77493776	30.16061221	4.77241166
Ti	8.49420063	14.33971114	4.71069041
Ti	8.51136561	24.95225732	4.77976593
Ti	23.82653967	14.40985087	4.89163748
Ti	23.86719616	24.92467158	4.80110257
Ti	8.60878295	11.42727358	5.53393106
Ti	8.49316595	22.05878229	5.57185618
Ti	23.72165474	11.47748147	5.46486758
Ti	23.80121417	22.02152724	5.51266062
Ti	21.85291621	16.72370017	5.47627133
Ti	21.87321608	27.22388687	5.50556328
Ti	10.41270100	19.71363270	4.83811539
Ti	10.65913262	30.26977188	4.77080944
Ti	25.61583604	19.65665138	4.86603658
Ti	25.56583619	30.18772436	4.74257922
Ti	14.18143398	19.54693526	4.74185923
Ti	14.39175671	30.02654627	4.67170119
Ti	29.38409161	19.73017536	4.84935862
Ti	29.55413694	30.19435262	4.67286152
Ti	18.07390650	19.71661292	4.68433959
Ti	17.95553146	30.25164458	4.69797911
Ti	12.35471207	14.55237997	4.80464721
Ti	12.35523115	24.95938243	4.74683563
Ti	27.65588377	14.51633032	4.73958571
Ti	27.55598950	24.94655061	4.83049932
Ti	16.16482695	14.36885774	4.76130236
Ti	16.21229679	24.89088633	4.79016792
Ti	20.09677425	14.39097807	4.81922658
Ti	19.98485210	24.92337439	4.71239348
Ti	12.41117922	11.65498781	5.60241292
Ti	12.33026656	22.06676271	5.49873110
Ti	27.54491755	11.57520390	5.46683756
Ti	27.49499193	21.94703440	5.48576918
Ti	16.21166918	11.47434915	5.47814461
Ti	16.08339593	21.94110260	5.41441260
Ti	19.99135967	11.47699000	5.55107215
Ti	19.92482361	22.03967267	5.49050279
Ti	10.32408548	16.79202165	5.44569193
Ti	10.54199894	27.24726034	5.49365833
Ti	25.75032950	16.76227823	5.46950927
Ti	25.71707128	27.34316665	5.65587774
Ti	14.32683928	16.75380543	5.74387636
Ti	14.27973957	27.26310923	5.49661516
Ti	29.47937653	16.84514186	5.65853387
Ti	29.52580394	27.26588809	5.56727899
Ti	18.02493005	16.70983724	5.45920577
Ti	18.06968256	27.26528715	5.40609588
O	21.88491349	17.77573241	3.92819549
O	21.69491525	28.33814798	3.99044034
O	8.42596293	12.47436566	3.93773439
O	8.61790234	23.06884907	3.97595453
O	23.70231070	12.51702611	3.91626147
O	23.70538041	23.14119123	3.97775850
O	8.50392319	20.23558508	4.77570610
O	8.69063023	30.56902710	4.90321515
O	23.69913251	20.04892548	4.83040280
O	23.72873939	30.72561056	4.80895650
O	21.94263268	14.90855505	4.63318167
O	21.93116079	25.37214223	4.98066461
O	21.79816458	10.97289966	5.84078742
O	21.83543446	21.50414775	5.87827446
O	8.53769131	16.38606520	5.85971415
O	8.61014758	26.79038360	5.88533481
O	23.78715118	16.33445673	5.78260710
O	23.80301827	26.82999788	5.67067305
O	8.34861699	13.23212314	6.39231087
O	8.45367737	23.92852859	6.43448468
O	23.70601046	13.19808912	6.49460481
O	23.99771232	23.78600534	6.36079320
O	21.85816276	18.61223353	6.44143689
O	21.87303756	29.00091810	6.44144234
O	10.29456042	17.76508063	3.88437410
O	10.57756129	28.35694665	3.91855043
O	25.75009268	17.83355569	3.94276216
O	25.70766223	28.39305802	3.99795096
O	14.21480341	17.76227695	3.92700933
O	14.33828948	28.18396138	3.93647753
O	29.65574287	17.81495575	4.01500750
O	29.50627708	28.35868211	4.00723905
O	17.95886345	17.87348700	3.95806732
O	18.06552281	28.40909186	3.91638361
O	12.26517946	12.60169094	3.99115602
O	12.23462830	23.01946120	3.84590117
O	27.73606180	12.66199255	3.92389454
O	27.46945085	23.04145447	3.91582081
O	16.18366928	12.56572186	3.88664088
O	16.11268721	23.05425568	3.88573479
O	19.87878709	12.52785278	3.95548679
O	19.91585329	23.08444305	3.87629913
O	12.32882081	20.05283569	4.90710777
O	12.55832861	30.84242334	4.87049384
O	27.53122325	20.13399697	4.78569904
O	27.53832223	30.54701449	4.92603480
O	16.19247211	20.06448396	4.80891889
O	16.12690272	30.82282930	4.71170831
O	19.95988289	20.07777046	4.83323251
O	19.90720884	30.51918677	4.94924586
O	10.36535214	14.83860430	4.79120265
O	10.38606243	25.34888521	4.93435520
O	25.78721641	14.86097236	4.76290452
O	25.65946208	25.60955010	4.65054785
O	14.30060632	14.72022803	5.10208395
O	14.31212461	25.38785596	4.73084486
O	29.62030111	15.01486745	4.98000342
O	29.50752023	25.35661421	4.80581286
O	18.24307424	14.80739589	4.79368380
O	18.08005902	25.46320327	4.56629541
O	10.52138084	11.04538709	5.82935183
O	10.45189219	21.48904900	5.82568464
O	25.60446235	11.03510257	5.82865655
O	25.58410630	21.41634530	5.87288012
O	14.33038651	11.06490064	5.85316041
O	14.20584089	21.63645015	5.90086933
O	29.41368195	11.08352933	5.73344672
O	29.35037033	21.78805675	5.82712568
O	18.05837145	11.00590415	5.91690443
O	18.03009933	21.51941096	5.66425196
O	12.27874191	16.39505588	5.38054574
O	12.41910793	26.62831662	5.82920131
O	27.61528454	16.36335014	5.70742160
O	27.60278560	26.71080907	5.76527770
O	16.21660414	16.21464626	5.55603090
O	16.17981951	26.74582165	5.77658597
O	19.93196048	16.24550406	5.64568391
O	19.90741944	26.81445323	6.02843047
O	12.22843109	13.45347453	6.48924678
O	12.18431795	23.81461461	6.26060036
O	27.47089099	13.36836108	6.32817284
O	27.29906089	23.75284385	6.27947694
O	16.44079773	13.16993812	6.34239704
O	16.14518485	23.79110675	6.36929912
O	20.18434023	13.22587259	6.33651976
O	19.82420759	23.71300297	6.41190923
O	10.36342287	18.57451995	6.43816207
O	10.75667286	29.00800194	6.21443661
O	25.74695827	18.50800284	6.38607861
O	25.65806749	29.05481227	6.39786596
O	14.27501447	18.58909992	6.51390346
O	14.34337942	29.12194468	6.31613346
O	29.15608668	18.66902877	6.41519542
O	29.40212606	29.08611276	6.42596896
O	18.08447984	18.42346351	6.46469384
O	17.86167422	29.01896071	6.36043522
H	14.88067974	14.07367422	7.78446827
H	13.97757907	14.63013111	11.17580033
H	14.63044660	18.28138959	8.95671864
O	14.07275495	16.26781153	7.59006621
O	14.87788392	14.45962670	8.68447604
C	14.43316867	15.63866128	8.71205418
C	14.43486167	16.40698872	9.96995633
C	14.22486420	15.70212915	11.19539276
C	14.54704433	17.76129744	9.93435991
N	12.91734548	19.52380000	15.52175421
N	15.52193944	22.38164544	16.85750062
N	15.78270763	20.24894245	14.91122849
N	12.66771400	21.78129742	17.44464721
C	21.34390905	20.98965425	16.44381878
C	14.49136133	25.29650794	21.78804592
C	7.08395022	19.92978804	16.30536610
C	19.09850912	21.54059146	15.91435063
C	13.95774641	24.60665849	19.53837308
C	9.41352541	19.76627918	17.12619544
C	20.88520123	23.06102887	15.23975021
C	13.53207519	26.94183380	20.30330415
C	7.57835975	18.57774606	18.24312122
C	14.35812099	18.59934474	13.62456660
C	17.65729223	21.35406343	16.03629713
C	13.97489704	23.65075534	18.45271722
C	10.86806542	20.06479995	16.98248514
C	15.58747507	19.18982547	14.01750311
C	17.07467112	20.46565246	15.07543102
C	12.78578902	22.90307198	18.17425747
C	11.40485107	21.27101396	17.56392097
C	16.89037443	18.99889692	13.33356220
C	17.79741846	19.62131274	14.09358294
C	11.48950851	23.17504982	18.74996964
C	10.67525117	22.20665658	18.31770876
C	13.17479114	18.66517371	14.46039313
C	16.90132186	22.25076288	16.83051852
C	15.23981154	23.32251599	17.88074852
C	11.60775109	19.36406429	15.95260904
C	12.01395875	17.76513968	14.36291496
C	17.47870057	23.23711180	17.73780878
C	16.41713369	23.85912456	18.36320403
C	11.04123089	18.18877055	15.27428700
H	11.85901496	16.90293711	13.68367403
H	18.51864154	23.56612045	17.75834683
H	16.38474080	24.58987459	19.17242309
H	10.06095308	17.70764129	15.51002459
H	17.09967872	18.26616569	12.53597626
H	18.86697010	19.61928115	14.00167414
H	11.11449707	24.11901366	19.21836899
H	9.62944717	22.07162585	18.50925076
H	21.36655620	23.85845902	14.64185961
H	13.20500888	27.96299072	19.94444638
H	7.19400419	18.02035293	19.13693447
H	22.07669465	20.32254965	16.94950164
H	14.92737401	25.01364846	22.81614503
H	6.33670329	20.25054168	15.57682490
H	15.12351567	20.82475832	15.40661184
H	13.45377453	21.32262073	16.95491526
C	23.22136123	22.28699602	15.39616714
H	23.53553911	21.53363611	14.70761798
H	23.88029708	22.20247290	16.32533569
H	23.28024143	23.28382172	14.93241257
C	19.40169822	19.66636894	17.55868546
H	18.35974525	19.84151843	17.82096093
H	20.08080803	19.63474008	18.40301481
H	19.41949007	18.62099558	17.18568759
C	18.54413606	23.65386146	14.54421633
H	18.86380232	23.55416168	13.46092562
H	18.69088656	24.73888430	14.82603414
H	17.53178937	23.29800189	14.74515496
C	9.84907374	18.57555853	19.28971527
H	10.36724775	17.61351219	18.99437208
H	9.37032803	18.44348522	20.26959121
H	10.65681905	19.29015584	19.42499749
C	8.85739151	21.28892848	15.21230989
H	9.82595947	21.76374775	15.43466194
H	8.08163395	22.06228203	15.09383412
H	9.03924110	20.82190273	14.25916870
C	5.43205214	18.23573827	17.27264845
H	5.40527167	17.67852710	16.27522941
H	4.44242186	18.79014507	17.39046890
H	5.50252320	17.47323488	18.01030267
C	12.90266652	26.41103626	17.94470556
H	12.33668723	25.56979503	17.48447666
H	13.72685465	26.53868394	17.21153941
H	12.26949645	27.32116227	17.94190609
C	14.85449986	22.84044534	20.99209142
H	14.72792142	22.59237388	22.05989618
H	15.92604122	22.80054953	20.85032207
H	14.41431476	22.05347635	20.33106266
C	14.30599363	27.77576942	22.43816897
H	14.78591485	27.49376430	23.39084272
H	13.32374218	28.19791523	22.72987130
H	14.96103573	28.55445812	22.00814062
C	21.75242100	22.09975945	15.70078297
C	19.98164978	20.69745446	16.61773352
C	19.53325229	22.72330353	15.29147851
C	13.46573653	25.95771028	19.29134779
C	14.39235246	24.25671488	20.82687163
C	14.11148204	26.63063787	21.52265328
C	8.92234947	19.00510609	18.20583449
C	8.42940726	20.30481068	16.22975188
C	6.67209775	19.00639933	17.32448984
H	13.97155262	15.85173136	13.41979591
H	14.83498156	19.54995218	11.20832353
C	14.31407554	17.81626598	12.38122584
C	14.08758082	16.38735088	12.43013815
C	14.62773415	18.44384303	11.18307684

Ti O H C N 0
6-31G*
****

