%chk=f00016187.chk
%mem=24GB
%nproc=12
#p b3lyp/6-31G*

title

0 1
Ti	2.81187400	0.19704000	1.10336000
Ti	0.90594400	5.44057000	1.10336000
Ti	4.71781400	5.44057000	1.10336000
Ti	0.90594400	2.47241000	1.99114000
Ti	4.71781400	2.47241000	1.99114000
Ti	2.81187400	7.71594000	1.99115000
O	2.81187400	8.81302000	0.37332000
O	0.90594400	3.56949000	0.37332000
O	4.71781400	3.56949000	0.37332000
O	0.90594400	0.60134000	1.26110000
O	4.71781400	0.60134000	1.26110000
O	2.81187400	5.84486000	1.26111000
O	2.81187400	2.06812000	1.83340000
O	0.90594400	7.31164000	1.83340000
O	4.71781400	7.31164000	1.83340000
O	0.90594400	4.34349000	2.72118000
O	4.71781400	4.34349000	2.72118000
O	2.81187400	9.58701000	2.72118000
Ti	6.62374588	0.19704000	1.10336000
Ti	21.87123776	0.19704000	1.10336000
Ti	8.52968588	5.44057000	1.10336000
Ti	23.77717776	5.44057000	1.10336000
Ti	8.52968588	2.47241000	1.99114000
Ti	23.77717776	2.47241000	1.99114000
Ti	6.62374588	7.71594000	1.99115000
Ti	21.87123776	7.71594000	1.99115000
Ti	10.43561588	0.19704000	1.10336000
Ti	25.68310776	0.19704000	1.10336000
Ti	14.24749588	0.19704000	1.10336000
Ti	29.49498776	0.19704000	1.10336000
Ti	18.05936588	0.19704000	1.10336000
Ti	12.34155588	5.44057000	1.10336000
Ti	27.58904776	5.44057000	1.10336000
Ti	16.15343588	5.44057000	1.10336000
Ti	19.96530588	5.44057000	1.10336000
Ti	12.34155588	2.47241000	1.99114000
Ti	27.58904776	2.47241000	1.99114000
Ti	16.15343588	2.47241000	1.99114000
Ti	19.96530588	2.47241000	1.99114000
Ti	10.43561588	7.71594000	1.99115000
Ti	25.68310776	7.71594000	1.99115000
Ti	14.24749588	7.71594000	1.99115000
Ti	29.49498776	7.71594000	1.99115000
Ti	18.05936588	7.71594000	1.99115000
O	6.62374588	8.81302000	0.37332000
O	21.87123776	8.81302000	0.37332000
O	8.52968588	3.56949000	0.37332000
O	23.77717776	3.56949000	0.37332000
O	8.52968588	0.60134000	1.26110000
O	23.77717776	0.60134000	1.26110000
O	6.62374588	5.84486000	1.26111000
O	21.87123776	5.84486000	1.26111000
O	6.62374588	2.06812000	1.83340000
O	21.87123776	2.06812000	1.83340000
O	8.52968588	7.31164000	1.83340000
O	23.77717776	7.31164000	1.83340000
O	8.52968588	4.34349000	2.72118000
O	23.77717776	4.34349000	2.72118000
O	6.62374588	9.58701000	2.72118000
O	21.87123776	9.58701000	2.72118000
O	10.43561588	8.81302000	0.37332000
O	25.68310776	8.81302000	0.37332000
O	14.24749588	8.81302000	0.37332000
O	29.49498776	8.81302000	0.37332000
O	18.05936588	8.81302000	0.37332000
O	12.34155588	3.56949000	0.37332000
O	27.58904776	3.56949000	0.37332000
O	16.15343588	3.56949000	0.37332000
O	19.96530588	3.56949000	0.37332000
O	12.34155588	0.60134000	1.26110000
O	27.58904776	0.60134000	1.26110000
O	16.15343588	0.60134000	1.26110000
O	19.96530588	0.60134000	1.26110000
O	10.43561588	5.84486000	1.26111000
O	25.68310776	5.84486000	1.26111000
O	14.24749588	5.84486000	1.26111000
O	29.49498776	5.84486000	1.26111000
O	18.05936588	5.84486000	1.26111000
O	10.43561588	2.06812000	1.83340000
O	25.68310776	2.06812000	1.83340000
O	14.24749588	2.06812000	1.83340000
O	29.49498776	2.06812000	1.83340000
O	18.05936588	2.06812000	1.83340000
O	12.34155588	7.31164000	1.83340000
O	27.58904776	7.31164000	1.83340000
O	16.15343588	7.31164000	1.83340000
O	19.96530588	7.31164000	1.83340000
O	12.34155588	4.34349000	2.72118000
O	27.58904776	4.34349000	2.72118000
O	16.15343588	4.34349000	2.72118000
O	19.96530588	4.34349000	2.72118000
O	10.43561588	9.58701000	2.72118000
O	25.68310776	9.58701000	2.72118000
O	14.24749588	9.58701000	2.72118000
O	29.49498776	9.58701000	2.72118000
O	18.05936588	9.58701000	2.72118000
Ti	2.81187400	10.68408607	1.10336000
Ti	2.81187400	21.17113214	1.10336000
Ti	0.90594400	15.92761607	1.10336000
Ti	0.90594400	26.41466214	1.10336000
Ti	4.71781400	15.92761607	1.10336000
Ti	4.71781400	26.41466214	1.10336000
Ti	0.90594400	12.95945607	1.99114000
Ti	0.90594400	23.44650214	1.99114000
Ti	4.71781400	12.95945607	1.99114000
Ti	4.71781400	23.44650214	1.99114000
Ti	2.81187400	18.20298607	1.99115000
Ti	2.81187400	28.69003214	1.99115000
O	2.81187400	19.30006607	0.37332000
O	2.81187400	29.78711214	0.37332000
O	0.90594400	14.05653607	0.37332000
O	0.90594400	24.54358214	0.37332000
O	4.71781400	14.05653607	0.37332000
O	4.71781400	24.54358214	0.37332000
O	0.90594400	11.08838607	1.26110000
O	0.90594400	21.57543214	1.26110000
O	4.71781400	11.08838607	1.26110000
O	4.71781400	21.57543214	1.26110000
O	2.81187400	16.33190607	1.26111000
O	2.81187400	26.81895214	1.26111000
O	2.81187400	12.55516607	1.83340000
O	2.81187400	23.04221214	1.83340000
O	0.90594400	17.79868607	1.83340000
O	0.90594400	28.28573214	1.83340000
O	4.71781400	17.79868607	1.83340000
O	4.71781400	28.28573214	1.83340000
O	0.90594400	14.83053607	2.72118000
O	0.90594400	25.31758214	2.72118000
O	4.71781400	14.83053607	2.72118000
O	4.71781400	25.31758214	2.72118000
O	2.81187400	20.07405607	2.72118000
O	2.81187400	30.56110214	2.72118000
Ti	6.62374588	10.68408607	1.10336000
Ti	6.62374588	21.17113214	1.10336000
Ti	21.87123776	10.68408607	1.10336000
Ti	21.87123776	21.17113214	1.10336000
Ti	8.52968588	15.92761607	1.10336000
Ti	8.52968588	26.41466214	1.10336000
Ti	23.77717776	15.92761607	1.10336000
Ti	23.77717776	26.41466214	1.10336000
Ti	8.52968588	12.95945607	1.99114000
Ti	8.52968588	23.44650214	1.99114000
Ti	23.77717776	12.95945607	1.99114000
Ti	23.77717776	23.44650214	1.99114000
Ti	6.62374588	18.20298607	1.99115000
Ti	6.62374588	28.69003214	1.99115000
Ti	21.87123776	18.20298607	1.99115000
Ti	21.87123776	28.69003214	1.99115000
Ti	10.43561588	10.68408607	1.10336000
Ti	10.43561588	21.17113214	1.10336000
Ti	25.68310776	10.68408607	1.10336000
Ti	25.68310776	21.17113214	1.10336000
Ti	14.24749588	10.68408607	1.10336000
Ti	14.24749588	21.17113214	1.10336000
Ti	29.49498776	10.68408607	1.10336000
Ti	29.49498776	21.17113214	1.10336000
Ti	18.05936588	10.68408607	1.10336000
Ti	18.05936588	21.17113214	1.10336000
Ti	12.34155588	15.92761607	1.10336000
Ti	12.34155588	26.41466214	1.10336000
Ti	27.58904776	15.92761607	1.10336000
Ti	27.58904776	26.41466214	1.10336000
Ti	16.15343588	15.92761607	1.10336000
Ti	16.15343588	26.41466214	1.10336000
Ti	19.96530588	15.92761607	1.10336000
Ti	19.96530588	26.41466214	1.10336000
Ti	12.34155588	12.95945607	1.99114000
Ti	12.34155588	23.44650214	1.99114000
Ti	27.58904776	12.95945607	1.99114000
Ti	27.58904776	23.44650214	1.99114000
Ti	16.15343588	12.95945607	1.99114000
Ti	16.15343588	23.44650214	1.99114000
Ti	19.96530588	12.95945607	1.99114000
Ti	19.96530588	23.44650214	1.99114000
Ti	10.43561588	18.20298607	1.99115000
Ti	10.43561588	28.69003214	1.99115000
Ti	25.68310776	18.20298607	1.99115000
Ti	25.68310776	28.69003214	1.99115000
Ti	14.24749588	18.20298607	1.99115000
Ti	14.24749588	28.69003214	1.99115000
Ti	29.49498776	18.20298607	1.99115000
Ti	29.49498776	28.69003214	1.99115000
Ti	18.05936588	18.20298607	1.99115000
Ti	18.05936588	28.69003214	1.99115000
O	6.62374588	19.30006607	0.37332000
O	6.62374588	29.78711214	0.37332000
O	21.87123776	19.30006607	0.37332000
O	21.87123776	29.78711214	0.37332000
O	8.52968588	14.05653607	0.37332000
O	8.52968588	24.54358214	0.37332000
O	23.77717776	14.05653607	0.37332000
O	23.77717776	24.54358214	0.37332000
O	8.52968588	11.08838607	1.26110000
O	8.52968588	21.57543214	1.26110000
O	23.77717776	11.08838607	1.26110000
O	23.77717776	21.57543214	1.26110000
O	6.62374588	16.33190607	1.26111000
O	6.62374588	26.81895214	1.26111000
O	21.87123776	16.33190607	1.26111000
O	21.87123776	26.81895214	1.26111000
O	6.62374588	12.55516607	1.83340000
O	6.62374588	23.04221214	1.83340000
O	21.87123776	12.55516607	1.83340000
O	21.87123776	23.04221214	1.83340000
O	8.52968588	17.79868607	1.83340000
O	8.52968588	28.28573214	1.83340000
O	23.77717776	17.79868607	1.83340000
O	23.77717776	28.28573214	1.83340000
O	8.52968588	14.83053607	2.72118000
O	8.52968588	25.31758214	2.72118000
O	23.77717776	14.83053607	2.72118000
O	23.77717776	25.31758214	2.72118000
O	6.62374588	20.07405607	2.72118000
O	6.62374588	30.56110214	2.72118000
O	21.87123776	20.07405607	2.72118000
O	21.87123776	30.56110214	2.72118000
O	10.43561588	19.30006607	0.37332000
O	10.43561588	29.78711214	0.37332000
O	25.68310776	19.30006607	0.37332000
O	25.68310776	29.78711214	0.37332000
O	14.24749588	19.30006607	0.37332000
O	14.24749588	29.78711214	0.37332000
O	29.49498776	19.30006607	0.37332000
O	29.49498776	29.78711214	0.37332000
O	18.05936588	19.30006607	0.37332000
O	18.05936588	29.78711214	0.37332000
O	12.34155588	14.05653607	0.37332000
O	12.34155588	24.54358214	0.37332000
O	27.58904776	14.05653607	0.37332000
O	27.58904776	24.54358214	0.37332000
O	16.15343588	14.05653607	0.37332000
O	16.15343588	24.54358214	0.37332000
O	19.96530588	14.05653607	0.37332000
O	19.96530588	24.54358214	0.37332000
O	12.34155588	11.08838607	1.26110000
O	12.34155588	21.57543214	1.26110000
O	27.58904776	11.08838607	1.26110000
O	27.58904776	21.57543214	1.26110000
O	16.15343588	11.08838607	1.26110000
O	16.15343588	21.57543214	1.26110000
O	19.96530588	11.08838607	1.26110000
O	19.96530588	21.57543214	1.26110000
O	10.43561588	16.33190607	1.26111000
O	10.43561588	26.81895214	1.26111000
O	25.68310776	16.33190607	1.26111000
O	25.68310776	26.81895214	1.26111000
O	14.24749588	16.33190607	1.26111000
O	14.24749588	26.81895214	1.26111000
O	29.49498776	16.33190607	1.26111000
O	29.49498776	26.81895214	1.26111000
O	18.05936588	16.33190607	1.26111000
O	18.05936588	26.81895214	1.26111000
O	10.43561588	12.55516607	1.83340000
O	10.43561588	23.04221214	1.83340000
O	25.68310776	12.55516607	1.83340000
O	25.68310776	23.04221214	1.83340000
O	14.24749588	12.55516607	1.83340000
O	14.24749588	23.04221214	1.83340000
O	29.49498776	12.55516607	1.83340000
O	29.49498776	23.04221214	1.83340000
O	18.05936588	12.55516607	1.83340000
O	18.05936588	23.04221214	1.83340000
O	12.34155588	17.79868607	1.83340000
O	12.34155588	28.28573214	1.83340000
O	27.58904776	17.79868607	1.83340000
O	27.58904776	28.28573214	1.83340000
O	16.15343588	17.79868607	1.83340000
O	16.15343588	28.28573214	1.83340000
O	19.96530588	17.79868607	1.83340000
O	19.96530588	28.28573214	1.83340000
O	12.34155588	14.83053607	2.72118000
O	12.34155588	25.31758214	2.72118000
O	27.58904776	14.83053607	2.72118000
O	27.58904776	25.31758214	2.72118000
O	16.15343588	14.83053607	2.72118000
O	16.15343588	25.31758214	2.72118000
O	19.96530588	14.83053607	2.72118000
O	19.96530588	25.31758214	2.72118000
O	10.43561588	20.07405607	2.72118000
O	10.43561588	30.56110214	2.72118000
O	25.68310776	20.07405607	2.72118000
O	25.68310776	30.56110214	2.72118000
O	14.24749588	20.07405607	2.72118000
O	14.24749588	30.56110214	2.72118000
O	29.49498776	20.07405607	2.72118000
O	29.49498776	30.56110214	2.72118000
O	18.05936588	20.07405607	2.72118000
O	18.05936588	30.56110214	2.72118000
Ti	6.54706657	9.18569522	4.69320792
Ti	6.75703524	6.32975694	5.54081672
Ti	2.73603084	9.14629329	4.76213830
Ti	1.06638753	4.05793547	4.71169264
Ti	4.88020103	3.84631875	4.91572867
Ti	0.80922979	1.05224347	5.56001296
Ti	4.69711411	1.02133154	5.62779150
Ti	3.00699243	6.25079218	5.44920152
O	6.62123375	7.31473987	3.86342554
O	6.73906817	4.43624244	4.69765528
O	6.65093702	0.51296808	5.58019873
O	6.67092752	8.10992178	6.37280430
O	2.83358688	7.33272049	3.91720625
O	0.95173574	2.08809740	3.93129274
O	4.78557470	2.06510267	3.98944340
O	0.84666329	9.59072842	4.78143193
O	4.66135887	9.70590626	4.72984128
O	3.01903848	4.33818959	4.79228867
O	2.73237391	0.60048060	5.75745626
O	1.05734568	5.78781827	5.69563774
O	4.84633685	5.57975653	5.95523622
O	0.89808971	2.89067166	6.22928235
O	4.98661935	2.68534553	6.50734593
O	2.95039421	7.97532781	6.25181973
Ti	21.89552692	9.22781721	4.60770039
Ti	8.64471135	3.87258957	4.83537607
Ti	23.73901974	4.02907691	4.83054244
Ti	8.58219539	0.91844563	5.37059008
Ti	23.79592514	1.02411360	5.50021673
Ti	21.83756576	6.37844082	5.53614728
Ti	10.42512663	9.27255697	4.69017771
Ti	25.70893704	9.17698078	4.79021994
Ti	14.16237799	9.27091614	4.71690205
Ti	29.39160167	9.19187682	4.64543077
Ti	18.08852793	9.28740310	4.66559015
Ti	12.49930407	4.04369956	4.66510973
Ti	27.61339649	4.00632895	4.79900362
Ti	16.22549276	3.97608835	4.77938066
Ti	19.92767533	4.01950345	4.72407455
Ti	12.49488761	1.08838126	5.47052180
Ti	27.48332829	1.07971731	5.55126987
Ti	16.23419468	1.07138892	5.44119653
Ti	19.99961411	1.17058819	5.48476948
Ti	10.54615534	6.41099149	5.52994062
Ti	25.64623307	6.20557474	5.43463110
Ti	14.33196803	6.32178407	5.45587228
Ti	29.57225710	6.29201781	5.57904490
Ti	18.01702696	6.37871722	5.46529099
O	21.71218267	7.33514032	3.89813375
O	8.69857102	2.07885535	3.86525672
O	23.78688768	2.14058800	3.95268866
O	8.48689819	9.63040704	4.92105833
O	23.76003615	9.69306597	4.83649918
O	21.88669295	4.42978887	4.95536995
O	21.84525876	0.54049529	5.74807780
O	8.57971487	5.75935920	5.80622829
O	23.70468093	6.02149407	5.64989430
O	8.42726096	2.60664969	6.32132143
O	23.72318535	2.81504535	6.35452915
O	21.93144177	8.09555517	6.37075552
O	10.34796302	7.31969793	3.94055703
O	25.56291447	7.34964240	3.92265130
O	14.37115323	7.37103713	3.92271630
O	29.49731199	7.28939044	3.92268896
O	18.04311258	7.37562360	3.90516115
O	12.35604520	2.11905855	3.88690485
O	27.50107154	2.01000406	3.88799561
O	16.21486818	2.25769446	3.91242822
O	20.16972387	2.18708283	3.97342403
O	12.30865636	9.71110600	4.59055287
O	27.52502238	9.74377913	4.76290416
O	16.11181474	9.75297363	4.80817828
O	20.00698082	9.74227534	4.67356720
O	10.52869290	4.39452754	4.97028184
O	25.65358687	4.25573114	4.93208400
O	14.36227057	4.45713621	4.63282922
O	29.51455974	4.51446617	4.74410252
O	18.06968639	4.47858839	4.76896173
O	10.50190602	0.56111102	5.74850071
O	25.69502630	0.49369284	5.88417964
O	14.30287792	0.52247081	5.59662386
O	29.42767098	0.59395150	5.77208341
O	18.20280169	0.49131948	5.70861592
O	12.48865588	5.82210253	5.66303938
O	27.59711648	5.88930008	5.64273704
O	16.09850642	5.76391217	5.82800066
O	19.93519632	5.88175561	5.74065063
O	12.78536127	2.79586294	6.29264718
O	27.75399438	2.80502602	6.36639258
O	16.21013649	2.78048058	6.37297053
O	20.00772742	2.89158960	6.31941224
O	10.39508473	8.13612217	6.33017553
O	25.81108618	7.96829959	6.34787659
O	14.15982716	8.03219753	6.32073568
O	29.53135146	8.05974409	6.30821363
O	17.95447151	8.08367411	6.29601898
Ti	6.53162548	19.67225714	4.78315235
Ti	6.49828108	30.16902267	4.74765034
Ti	6.49633102	16.77596939	5.55564873
Ti	6.60514099	27.23266297	5.51245417
Ti	2.86076660	19.84147159	4.81609502
Ti	2.72763437	30.12557636	4.66818159
Ti	0.91280159	14.29753536	4.70447924
Ti	0.83759765	24.84692777	4.73243680
Ti	4.58419940	14.44451762	4.85325654
Ti	4.71536169	24.92018326	4.79788877
Ti	0.89901265	11.43279181	5.56814554
Ti	0.92509261	21.97946638	5.49859906
Ti	4.74527927	11.54020377	5.55143476
Ti	4.77586104	22.01674232	5.48079980
Ti	2.75805193	16.88402343	5.59528745
Ti	2.81490774	27.20542235	5.39826357
O	6.59683407	17.78330263	3.94003912
O	6.49681564	28.29450903	3.93572895
O	6.60016234	14.85572785	4.82774904
O	6.61821780	25.24899153	4.75799579
O	6.59688836	11.09509052	5.89100034
O	6.57137586	21.46958309	5.72789835
O	6.60293567	18.56711312	6.45238207
O	6.69496242	28.92924009	6.36453045
O	2.97520659	17.90492853	3.99602083
O	2.60164984	28.27754304	3.90462363
O	1.09216766	12.55652469	3.93594503
O	0.93860658	22.97599241	3.97025045
O	4.75988564	12.68262963	4.00358277
O	4.48995917	23.11880533	3.96415821
O	0.92536354	20.07438457	4.92997606
O	0.82619097	30.59363187	4.71168987
O	4.71283784	20.15930306	4.69779694
O	4.63824131	30.57377950	4.85840860
O	2.66247378	14.99952254	4.92074627
O	2.80027123	25.30391768	4.74656543
O	2.80138875	11.03534154	5.73234609
O	2.81518662	21.58480379	5.97576374
O	0.94363798	16.80189277	6.20172226
O	0.92717226	26.63785339	5.74353274
O	4.59574642	16.20162058	5.93035116
O	4.68441090	26.80498994	5.80419431
O	0.84707210	13.21163487	6.40014414
O	0.66042961	23.75373678	6.40604920
O	4.59576992	13.26562694	6.43761832
O	4.63329521	23.73127315	6.40285005
O	3.00924956	18.68017599	6.33749323
O	2.72944987	28.91862405	6.38925596
Ti	21.86144059	19.75826621	4.69174908
Ti	21.85591986	30.19897183	4.77401817
Ti	8.44344228	14.50531631	4.75060118
Ti	8.52072231	24.92645240	4.72169739
Ti	23.82522271	14.45482297	4.73002461
Ti	23.71884619	25.03093313	4.71294929
Ti	8.38861685	11.58799831	5.44364141
Ti	8.51149872	22.04292440	5.53948294
Ti	23.74534483	11.51986220	5.56144380
Ti	23.69755683	22.10670029	5.52776934
Ti	21.82723467	16.77906043	5.48574115
Ti	21.81867283	27.25278933	5.47850748
Ti	10.40999741	19.75965766	4.81911626
Ti	10.41568189	30.18648832	4.76000518
Ti	25.75986867	19.71733667	4.81693096
Ti	25.64456383	30.12180995	4.85147203
Ti	14.19791895	19.72991119	4.82193506
Ti	14.19538316	30.19121369	4.72876209
Ti	29.41301124	19.81073913	4.71524854
Ti	29.43820409	30.22592983	5.12878880
Ti	18.01231288	19.76017852	4.70392911
Ti	18.06305220	30.06792501	4.79386692
Ti	12.25258033	14.59236029	4.72423164
Ti	12.24873490	24.82632967	4.76261804
Ti	27.59928536	14.62575922	4.82799504
Ti	27.58694931	24.98532007	4.76681448
Ti	16.02720012	14.57391464	4.73268381
Ti	16.21858971	25.02325343	4.81964632
Ti	19.95586075	14.48463281	4.81171651
Ti	19.99118676	24.97514611	4.69419694
Ti	12.30313983	11.78293898	5.50144093
Ti	12.31846908	21.97846475	5.54978891
Ti	27.48662754	11.63516358	5.44372080
Ti	27.50742882	22.09137197	5.61223940
Ti	16.06647072	11.59358961	5.47993345
Ti	16.10072788	22.09421137	5.45127939
Ti	19.95785160	11.56534707	5.56263564
Ti	20.00359803	22.05048755	5.52824125
Ti	10.29443621	16.85696831	5.44510813
Ti	10.40922604	27.26187588	5.50438596
Ti	25.72530610	16.85480103	5.57940219
Ti	25.63865350	27.23152714	5.46332597
Ti	14.11059417	16.82911609	5.80384907
Ti	14.12726211	27.16082873	5.44459842
Ti	29.52121736	16.94457111	5.62683536
Ti	29.56033067	27.29148194	5.56980093
Ti	17.99518197	16.85769698	5.49320120
Ti	18.09252413	27.23552254	5.68092294
O	21.71528899	17.82828695	3.91700788
O	21.84227248	28.37778051	3.93538107
O	8.44952213	12.57066603	3.94307596
O	8.47049686	23.04913133	3.93679814
O	23.83000861	12.65450109	3.96576709
O	23.59844688	23.08629774	3.96792867
O	8.46696529	20.19596439	4.74186317
O	8.53099122	30.51898034	4.67423897
O	23.76632237	20.09579731	4.86851711
O	23.77826156	30.70633554	4.51369541
O	21.90060084	14.89550742	4.79656592
O	21.88475174	25.52369565	4.46514052
O	21.85960275	11.07471764	5.65721683
O	21.84821869	21.52495208	5.94522305
O	8.39753668	16.31866159	5.78674874
O	8.50929509	26.67431935	5.86149491
O	23.71276694	16.46219963	5.83654823
O	23.67467010	26.82874591	5.46812298
O	8.49354230	13.24080597	6.40586296
O	8.60881577	23.77726971	6.35435194
O	23.82220093	13.31654458	6.39877274
O	23.69277808	23.92881596	6.41914574
O	21.75806765	18.52679395	6.23660799
O	21.68349241	29.06703706	6.40639606
O	10.36292823	17.88190478	3.91274566
O	10.36371948	28.33292496	3.95305604
O	25.51559721	17.93614978	3.94765384
O	25.83331177	28.31496433	3.96739526
O	14.27349713	17.92402824	3.96069827
O	14.22513389	28.30079052	3.94539098
O	29.51692571	17.87340754	3.98196376
O	29.41245806	28.39791338	4.02555231
O	18.31188978	17.90399095	3.93680532
O	18.09319314	28.19214857	3.96691651
O	12.13676979	12.59126832	3.86600049
O	12.45227888	23.04905712	3.92126626
O	27.41751404	12.70079653	3.92352934
O	27.36829080	23.10999084	3.99156191
O	16.02102157	12.71799091	3.96663763
O	16.08338284	23.09293934	3.93937445
O	20.06473997	12.61430730	3.95629559
O	20.11343229	23.10986274	3.98004303
O	12.31721497	20.14092014	4.81167171
O	12.31557639	30.78118965	4.62772352
O	27.56916023	20.39231760	4.61457966
O	27.52791939	30.68024751	4.86665599
O	16.08627993	20.19109285	4.75683263
O	16.16644223	30.59401094	4.83911831
O	19.92460164	20.28017862	4.75146002
O	19.90887318	30.64397302	4.56287743
O	10.35767850	14.93154699	4.95415787
O	10.44664449	25.39472715	4.72827923
O	25.66123082	15.01714545	4.98064706
O	25.66563495	25.32093243	4.95393351
O	14.18479051	15.18468833	4.67216243
O	14.26702847	25.30700598	4.84820054
O	29.67223288	15.13960559	4.80302611
O	29.46118927	25.38673169	4.78203142
O	18.05142108	14.81863386	4.78238963
O	18.08671263	25.36779124	4.82202309
O	10.42279711	11.11625235	5.80477226
O	10.37693424	21.41420408	5.99347080
O	25.66926300	11.02370062	5.71333335
O	25.66893761	21.54165585	5.82439640
O	14.16173254	11.13199386	5.71199755
O	14.26229526	21.50114068	5.85013918
O	29.45731812	11.12803695	5.67840598
O	29.44210298	21.60248588	5.84407516
O	18.04517693	11.10403904	5.68164360
O	18.04197020	21.49663003	5.80299231
O	12.19925726	16.49619981	5.54573008
O	12.26814196	26.74975069	5.83473775
O	27.65340287	16.43350969	5.64695063
O	27.59541319	26.77950026	5.65454049
O	16.15014890	16.48528103	5.68968665
O	16.18414405	26.91129842	5.77350661
O	19.96137989	16.22382818	5.91383444
O	20.03427372	26.73692424	5.87477682
O	12.50071806	13.51215671	6.28818138
O	12.44662985	23.71466952	6.33166407
O	27.71230562	13.42371153	6.44391652
O	27.58297510	23.85703741	6.50597822
O	16.04839940	13.39593035	6.36412012
O	16.21413760	23.81141097	6.41541299
O	20.00730870	13.25240559	6.32321915
O	19.88874431	23.75369085	6.32903579
O	10.45357157	18.67489876	6.39818216
O	10.40754081	29.07758576	6.32196650
O	25.59866728	18.59942756	6.42676050
O	25.37068095	28.92830058	6.32425165
O	13.90424480	18.68999897	6.42466428
O	14.01990533	29.00612337	6.20829556
O	29.31482164	18.67238642	6.45430967
O	29.37329595	28.96823059	6.53676632
O	17.89691176	18.59345279	6.26389371
O	18.21200829	28.96503693	6.48223177
H	13.29934828	13.84153928	8.04771515
H	13.38964283	14.86391627	11.26866333
H	14.34556469	18.21902451	8.78493362
O	14.13648651	16.08903783	7.54793458
O	13.31277962	14.42694468	8.84983300
C	13.68223175	15.65545940	8.70042102
C	13.69809241	16.48695456	9.89382723
C	13.47603345	15.94954638	11.16558379
C	14.13471292	17.86850881	9.75653217
N	13.02532393	19.74339460	15.45527446
N	15.73299843	22.46002304	16.85480919
N	15.40867957	20.85770385	14.38629265
N	13.41475684	21.08513133	18.02248459
C	20.56691976	23.33527653	13.45708712
C	16.44742664	22.91082442	22.62343842
C	8.22847088	19.10680134	18.99221279
C	18.19794120	23.36274929	14.10952799
C	15.15884989	23.24256038	20.60545052
C	10.46835590	18.94759694	18.08763250
C	19.18359882	25.20853104	12.94659531
C	14.66538738	24.58636763	22.54585123
C	9.21285555	16.92272108	18.69432451
C	14.07262562	19.00137529	13.32966507
C	17.08389132	22.64326739	14.76325401
C	14.92944243	22.69964203	19.20225695
C	11.54860220	19.69874029	17.43859151
C	15.16415871	19.93424866	13.41620608
C	16.54261965	21.58287700	14.07055450
C	13.90947021	21.70452603	19.15533059
C	12.30934662	20.39622816	18.34489298
C	16.33320461	19.90248852	12.57171157
C	17.17235456	20.89600307	12.97061407
C	13.11296315	21.29408603	20.25245740
C	12.05753101	20.53083210	19.76105463
C	13.00983202	18.98013043	14.28584418
C	16.76569590	22.96444683	16.10479857
C	15.74402645	23.07621396	18.10637344
C	11.82408543	19.36402391	16.12573676
C	11.74000842	18.26039893	14.14590078
C	17.55513051	23.80343271	16.97388461
C	16.97210678	23.81559304	18.22138144
C	10.97763131	18.51827534	15.27335086
H	11.39662175	17.68082224	13.25039221
H	18.47513687	24.40923767	16.72010335
H	17.33300941	24.24377976	19.13275077
H	9.95247863	18.31912098	15.41123870
H	16.50278633	19.19871394	11.80205368
H	18.12247495	21.20515280	12.53994744
H	13.33765644	21.64259153	21.22205124
H	11.32295791	20.14601513	20.44986189
H	19.15655077	26.21105430	12.47655560
H	14.13888183	25.42250013	23.03132047
H	9.26251046	15.80639036	18.73754578
H	21.48073816	22.72322989	13.39248356
H	17.24955860	22.46827275	23.21044582
H	7.36492882	19.65481674	19.41454070
H	14.72251200	21.30886049	14.98051826
H	13.73954119	21.15108186	17.06709921
C	21.58845093	25.34225539	12.20990816
H	22.02317752	24.88728478	11.31201261
H	22.43720689	25.40829008	12.91482911
H	21.29876614	26.40327558	12.11616408
C	19.70413722	21.57902514	15.04672894
H	19.08348189	20.71781124	14.77722137
H	19.39370506	21.91847371	16.03162243
H	20.72429932	21.11493061	15.11768422
C	16.87625852	25.44299007	13.63779397
H	17.06280831	26.50857323	13.86902939
H	16.25202586	25.04661622	14.47931910
H	16.14333857	25.37448435	12.82309957
C	11.54509001	16.72986298	17.72675275
H	11.58954096	15.81587395	18.34042931
H	12.48747301	17.33701800	17.75198664
H	11.28819520	16.38840742	16.71769331
C	9.25838106	21.25854796	18.30212089
H	10.24250869	21.77007319	18.46899148
H	8.51888901	21.69446243	18.94588861
H	8.92375149	21.47438980	17.26048987
C	6.90032323	17.13542533	19.72984498
H	6.16802238	17.94572398	19.80221235
H	7.02775769	16.71668903	20.69447745
H	6.41937307	16.31258976	19.15803180
C	13.57244998	25.28682413	20.43206848
H	14.05957184	26.27033212	20.42822205
H	12.57632665	25.41235885	20.90276327
H	13.48905240	24.96377622	19.38874138
C	17.06780134	21.43235669	20.72128984
H	17.56060944	21.66698141	19.73427606
H	16.45131936	20.55047565	20.59624925
H	17.80351605	21.22700537	21.46406254
C	16.03502050	24.28562136	24.60601121
H	15.99221474	23.40562418	25.35105913
H	15.28039832	25.05026434	24.89954560
H	17.04512260	24.78182301	24.54820441
C	20.45750761	24.57565853	12.80666359
C	19.50156122	22.78732825	14.16792210
C	18.07235397	24.61222880	13.53458704
C	14.46399415	24.35651994	21.16818946
C	16.18449230	22.55456552	21.29354244
C	15.66603575	23.90457673	23.22549447
C	10.38050301	17.55886919	18.23251393
C	9.36832672	19.78261071	18.50074735
C	8.14990883	17.72800137	19.14568847
H	13.30277397	16.53024723	13.32287283
H	14.80476360	19.63936151	10.85532658
C	13.98362049	18.11812783	12.17421905
C	13.56861414	16.80728885	12.27985237
C	14.33882411	18.64564755	10.89546458

Ti O H C N 0
6-31G*
****

