%chk=f00011759.chk
%mem=24GB
%nproc=12
#p b3lyp/6-31G*

title

0 1
Ti	2.81187400	0.19704000	1.10336000
Ti	0.90594400	5.44057000	1.10336000
Ti	4.71781400	5.44057000	1.10336000
Ti	0.90594400	2.47241000	1.99114000
Ti	4.71781400	2.47241000	1.99114000
Ti	2.81187400	7.71594000	1.99115000
O	2.81187400	8.81302000	0.37332000
O	0.90594400	3.56949000	0.37332000
O	4.71781400	3.56949000	0.37332000
O	0.90594400	0.60134000	1.26110000
O	4.71781400	0.60134000	1.26110000
O	2.81187400	5.84486000	1.26111000
O	2.81187400	2.06812000	1.83340000
O	0.90594400	7.31164000	1.83340000
O	4.71781400	7.31164000	1.83340000
O	0.90594400	4.34349000	2.72118000
O	4.71781400	4.34349000	2.72118000
O	2.81187400	9.58701000	2.72118000
Ti	6.62374588	0.19704000	1.10336000
Ti	21.87123776	0.19704000	1.10336000
Ti	8.52968588	5.44057000	1.10336000
Ti	23.77717776	5.44057000	1.10336000
Ti	8.52968588	2.47241000	1.99114000
Ti	23.77717776	2.47241000	1.99114000
Ti	6.62374588	7.71594000	1.99115000
Ti	21.87123776	7.71594000	1.99115000
Ti	10.43561588	0.19704000	1.10336000
Ti	25.68310776	0.19704000	1.10336000
Ti	14.24749588	0.19704000	1.10336000
Ti	29.49498776	0.19704000	1.10336000
Ti	18.05936588	0.19704000	1.10336000
Ti	12.34155588	5.44057000	1.10336000
Ti	27.58904776	5.44057000	1.10336000
Ti	16.15343588	5.44057000	1.10336000
Ti	19.96530588	5.44057000	1.10336000
Ti	12.34155588	2.47241000	1.99114000
Ti	27.58904776	2.47241000	1.99114000
Ti	16.15343588	2.47241000	1.99114000
Ti	19.96530588	2.47241000	1.99114000
Ti	10.43561588	7.71594000	1.99115000
Ti	25.68310776	7.71594000	1.99115000
Ti	14.24749588	7.71594000	1.99115000
Ti	29.49498776	7.71594000	1.99115000
Ti	18.05936588	7.71594000	1.99115000
O	6.62374588	8.81302000	0.37332000
O	21.87123776	8.81302000	0.37332000
O	8.52968588	3.56949000	0.37332000
O	23.77717776	3.56949000	0.37332000
O	8.52968588	0.60134000	1.26110000
O	23.77717776	0.60134000	1.26110000
O	6.62374588	5.84486000	1.26111000
O	21.87123776	5.84486000	1.26111000
O	6.62374588	2.06812000	1.83340000
O	21.87123776	2.06812000	1.83340000
O	8.52968588	7.31164000	1.83340000
O	23.77717776	7.31164000	1.83340000
O	8.52968588	4.34349000	2.72118000
O	23.77717776	4.34349000	2.72118000
O	6.62374588	9.58701000	2.72118000
O	21.87123776	9.58701000	2.72118000
O	10.43561588	8.81302000	0.37332000
O	25.68310776	8.81302000	0.37332000
O	14.24749588	8.81302000	0.37332000
O	29.49498776	8.81302000	0.37332000
O	18.05936588	8.81302000	0.37332000
O	12.34155588	3.56949000	0.37332000
O	27.58904776	3.56949000	0.37332000
O	16.15343588	3.56949000	0.37332000
O	19.96530588	3.56949000	0.37332000
O	12.34155588	0.60134000	1.26110000
O	27.58904776	0.60134000	1.26110000
O	16.15343588	0.60134000	1.26110000
O	19.96530588	0.60134000	1.26110000
O	10.43561588	5.84486000	1.26111000
O	25.68310776	5.84486000	1.26111000
O	14.24749588	5.84486000	1.26111000
O	29.49498776	5.84486000	1.26111000
O	18.05936588	5.84486000	1.26111000
O	10.43561588	2.06812000	1.83340000
O	25.68310776	2.06812000	1.83340000
O	14.24749588	2.06812000	1.83340000
O	29.49498776	2.06812000	1.83340000
O	18.05936588	2.06812000	1.83340000
O	12.34155588	7.31164000	1.83340000
O	27.58904776	7.31164000	1.83340000
O	16.15343588	7.31164000	1.83340000
O	19.96530588	7.31164000	1.83340000
O	12.34155588	4.34349000	2.72118000
O	27.58904776	4.34349000	2.72118000
O	16.15343588	4.34349000	2.72118000
O	19.96530588	4.34349000	2.72118000
O	10.43561588	9.58701000	2.72118000
O	25.68310776	9.58701000	2.72118000
O	14.24749588	9.58701000	2.72118000
O	29.49498776	9.58701000	2.72118000
O	18.05936588	9.58701000	2.72118000
Ti	2.81187400	10.68408607	1.10336000
Ti	2.81187400	21.17113214	1.10336000
Ti	0.90594400	15.92761607	1.10336000
Ti	0.90594400	26.41466214	1.10336000
Ti	4.71781400	15.92761607	1.10336000
Ti	4.71781400	26.41466214	1.10336000
Ti	0.90594400	12.95945607	1.99114000
Ti	0.90594400	23.44650214	1.99114000
Ti	4.71781400	12.95945607	1.99114000
Ti	4.71781400	23.44650214	1.99114000
Ti	2.81187400	18.20298607	1.99115000
Ti	2.81187400	28.69003214	1.99115000
O	2.81187400	19.30006607	0.37332000
O	2.81187400	29.78711214	0.37332000
O	0.90594400	14.05653607	0.37332000
O	0.90594400	24.54358214	0.37332000
O	4.71781400	14.05653607	0.37332000
O	4.71781400	24.54358214	0.37332000
O	0.90594400	11.08838607	1.26110000
O	0.90594400	21.57543214	1.26110000
O	4.71781400	11.08838607	1.26110000
O	4.71781400	21.57543214	1.26110000
O	2.81187400	16.33190607	1.26111000
O	2.81187400	26.81895214	1.26111000
O	2.81187400	12.55516607	1.83340000
O	2.81187400	23.04221214	1.83340000
O	0.90594400	17.79868607	1.83340000
O	0.90594400	28.28573214	1.83340000
O	4.71781400	17.79868607	1.83340000
O	4.71781400	28.28573214	1.83340000
O	0.90594400	14.83053607	2.72118000
O	0.90594400	25.31758214	2.72118000
O	4.71781400	14.83053607	2.72118000
O	4.71781400	25.31758214	2.72118000
O	2.81187400	20.07405607	2.72118000
O	2.81187400	30.56110214	2.72118000
Ti	6.62374588	10.68408607	1.10336000
Ti	6.62374588	21.17113214	1.10336000
Ti	21.87123776	10.68408607	1.10336000
Ti	21.87123776	21.17113214	1.10336000
Ti	8.52968588	15.92761607	1.10336000
Ti	8.52968588	26.41466214	1.10336000
Ti	23.77717776	15.92761607	1.10336000
Ti	23.77717776	26.41466214	1.10336000
Ti	8.52968588	12.95945607	1.99114000
Ti	8.52968588	23.44650214	1.99114000
Ti	23.77717776	12.95945607	1.99114000
Ti	23.77717776	23.44650214	1.99114000
Ti	6.62374588	18.20298607	1.99115000
Ti	6.62374588	28.69003214	1.99115000
Ti	21.87123776	18.20298607	1.99115000
Ti	21.87123776	28.69003214	1.99115000
Ti	10.43561588	10.68408607	1.10336000
Ti	10.43561588	21.17113214	1.10336000
Ti	25.68310776	10.68408607	1.10336000
Ti	25.68310776	21.17113214	1.10336000
Ti	14.24749588	10.68408607	1.10336000
Ti	14.24749588	21.17113214	1.10336000
Ti	29.49498776	10.68408607	1.10336000
Ti	29.49498776	21.17113214	1.10336000
Ti	18.05936588	10.68408607	1.10336000
Ti	18.05936588	21.17113214	1.10336000
Ti	12.34155588	15.92761607	1.10336000
Ti	12.34155588	26.41466214	1.10336000
Ti	27.58904776	15.92761607	1.10336000
Ti	27.58904776	26.41466214	1.10336000
Ti	16.15343588	15.92761607	1.10336000
Ti	16.15343588	26.41466214	1.10336000
Ti	19.96530588	15.92761607	1.10336000
Ti	19.96530588	26.41466214	1.10336000
Ti	12.34155588	12.95945607	1.99114000
Ti	12.34155588	23.44650214	1.99114000
Ti	27.58904776	12.95945607	1.99114000
Ti	27.58904776	23.44650214	1.99114000
Ti	16.15343588	12.95945607	1.99114000
Ti	16.15343588	23.44650214	1.99114000
Ti	19.96530588	12.95945607	1.99114000
Ti	19.96530588	23.44650214	1.99114000
Ti	10.43561588	18.20298607	1.99115000
Ti	10.43561588	28.69003214	1.99115000
Ti	25.68310776	18.20298607	1.99115000
Ti	25.68310776	28.69003214	1.99115000
Ti	14.24749588	18.20298607	1.99115000
Ti	14.24749588	28.69003214	1.99115000
Ti	29.49498776	18.20298607	1.99115000
Ti	29.49498776	28.69003214	1.99115000
Ti	18.05936588	18.20298607	1.99115000
Ti	18.05936588	28.69003214	1.99115000
O	6.62374588	19.30006607	0.37332000
O	6.62374588	29.78711214	0.37332000
O	21.87123776	19.30006607	0.37332000
O	21.87123776	29.78711214	0.37332000
O	8.52968588	14.05653607	0.37332000
O	8.52968588	24.54358214	0.37332000
O	23.77717776	14.05653607	0.37332000
O	23.77717776	24.54358214	0.37332000
O	8.52968588	11.08838607	1.26110000
O	8.52968588	21.57543214	1.26110000
O	23.77717776	11.08838607	1.26110000
O	23.77717776	21.57543214	1.26110000
O	6.62374588	16.33190607	1.26111000
O	6.62374588	26.81895214	1.26111000
O	21.87123776	16.33190607	1.26111000
O	21.87123776	26.81895214	1.26111000
O	6.62374588	12.55516607	1.83340000
O	6.62374588	23.04221214	1.83340000
O	21.87123776	12.55516607	1.83340000
O	21.87123776	23.04221214	1.83340000
O	8.52968588	17.79868607	1.83340000
O	8.52968588	28.28573214	1.83340000
O	23.77717776	17.79868607	1.83340000
O	23.77717776	28.28573214	1.83340000
O	8.52968588	14.83053607	2.72118000
O	8.52968588	25.31758214	2.72118000
O	23.77717776	14.83053607	2.72118000
O	23.77717776	25.31758214	2.72118000
O	6.62374588	20.07405607	2.72118000
O	6.62374588	30.56110214	2.72118000
O	21.87123776	20.07405607	2.72118000
O	21.87123776	30.56110214	2.72118000
O	10.43561588	19.30006607	0.37332000
O	10.43561588	29.78711214	0.37332000
O	25.68310776	19.30006607	0.37332000
O	25.68310776	29.78711214	0.37332000
O	14.24749588	19.30006607	0.37332000
O	14.24749588	29.78711214	0.37332000
O	29.49498776	19.30006607	0.37332000
O	29.49498776	29.78711214	0.37332000
O	18.05936588	19.30006607	0.37332000
O	18.05936588	29.78711214	0.37332000
O	12.34155588	14.05653607	0.37332000
O	12.34155588	24.54358214	0.37332000
O	27.58904776	14.05653607	0.37332000
O	27.58904776	24.54358214	0.37332000
O	16.15343588	14.05653607	0.37332000
O	16.15343588	24.54358214	0.37332000
O	19.96530588	14.05653607	0.37332000
O	19.96530588	24.54358214	0.37332000
O	12.34155588	11.08838607	1.26110000
O	12.34155588	21.57543214	1.26110000
O	27.58904776	11.08838607	1.26110000
O	27.58904776	21.57543214	1.26110000
O	16.15343588	11.08838607	1.26110000
O	16.15343588	21.57543214	1.26110000
O	19.96530588	11.08838607	1.26110000
O	19.96530588	21.57543214	1.26110000
O	10.43561588	16.33190607	1.26111000
O	10.43561588	26.81895214	1.26111000
O	25.68310776	16.33190607	1.26111000
O	25.68310776	26.81895214	1.26111000
O	14.24749588	16.33190607	1.26111000
O	14.24749588	26.81895214	1.26111000
O	29.49498776	16.33190607	1.26111000
O	29.49498776	26.81895214	1.26111000
O	18.05936588	16.33190607	1.26111000
O	18.05936588	26.81895214	1.26111000
O	10.43561588	12.55516607	1.83340000
O	10.43561588	23.04221214	1.83340000
O	25.68310776	12.55516607	1.83340000
O	25.68310776	23.04221214	1.83340000
O	14.24749588	12.55516607	1.83340000
O	14.24749588	23.04221214	1.83340000
O	29.49498776	12.55516607	1.83340000
O	29.49498776	23.04221214	1.83340000
O	18.05936588	12.55516607	1.83340000
O	18.05936588	23.04221214	1.83340000
O	12.34155588	17.79868607	1.83340000
O	12.34155588	28.28573214	1.83340000
O	27.58904776	17.79868607	1.83340000
O	27.58904776	28.28573214	1.83340000
O	16.15343588	17.79868607	1.83340000
O	16.15343588	28.28573214	1.83340000
O	19.96530588	17.79868607	1.83340000
O	19.96530588	28.28573214	1.83340000
O	12.34155588	14.83053607	2.72118000
O	12.34155588	25.31758214	2.72118000
O	27.58904776	14.83053607	2.72118000
O	27.58904776	25.31758214	2.72118000
O	16.15343588	14.83053607	2.72118000
O	16.15343588	25.31758214	2.72118000
O	19.96530588	14.83053607	2.72118000
O	19.96530588	25.31758214	2.72118000
O	10.43561588	20.07405607	2.72118000
O	10.43561588	30.56110214	2.72118000
O	25.68310776	20.07405607	2.72118000
O	25.68310776	30.56110214	2.72118000
O	14.24749588	20.07405607	2.72118000
O	14.24749588	30.56110214	2.72118000
O	29.49498776	20.07405607	2.72118000
O	29.49498776	30.56110214	2.72118000
O	18.05936588	20.07405607	2.72118000
O	18.05936588	30.56110214	2.72118000
Ti	6.58890939	9.21466269	4.76169431
Ti	6.63791906	6.30573873	5.45920513
Ti	2.80888670	9.27307174	4.72282517
Ti	1.03630116	3.97143837	4.68684072
Ti	4.87416488	3.87873599	4.82283634
Ti	0.85062244	1.10490733	5.43235763
Ti	4.67119200	0.95898069	5.46061675
Ti	2.85145442	6.23521441	5.37725279
O	6.67889109	7.44319229	3.95048978
O	6.64317647	4.46470004	4.75609664
O	6.59098618	0.50447493	5.73781532
O	6.64919775	8.01595222	6.37388126
O	2.81065436	7.21802772	3.79890507
O	1.04707468	2.15682868	3.84276571
O	4.79431416	2.08948102	3.95301136
O	0.90574079	9.77164391	4.74397590
O	4.72764290	9.71769115	4.71377156
O	2.90582731	4.17863778	4.85480470
O	2.71705539	0.44194724	5.73284670
O	0.96256464	5.94230317	5.41831286
O	4.69364183	5.68304439	5.87812982
O	0.89871801	2.85965272	6.22932404
O	4.70585007	2.62391078	6.38695211
O	2.90513387	8.02814629	6.28422665
Ti	21.87536705	9.18665298	4.70904569
Ti	8.47307544	4.01973193	4.78364478
Ti	23.75003397	4.00287264	4.85562988
Ti	8.41486727	1.12983112	5.53676958
Ti	23.66097063	1.01339951	5.42433752
Ti	21.94702624	6.30034501	5.67264513
Ti	10.51194346	9.22052372	4.70440693
Ti	25.63496226	9.24336345	4.84265759
Ti	14.32179139	9.19199717	4.71931539
Ti	29.53971929	9.25587510	4.78559809
Ti	18.02822538	9.22182606	4.70161278
Ti	12.34926492	3.92967879	4.76434721
Ti	27.61404316	3.91449349	4.76163986
Ti	16.15744782	4.02112392	4.81969473
Ti	19.94081357	3.97983722	4.69209119
Ti	12.34387046	1.08464160	5.51879983
Ti	27.53779955	1.05552549	5.45672404
Ti	16.06440669	1.05016504	5.51649030
Ti	19.76223211	1.09319207	5.63433355
Ti	10.33368589	6.29206244	5.40596942
Ti	25.82056802	6.30588042	5.49165342
Ti	14.15565907	6.31884421	5.42258802
Ti	29.59599173	6.35306505	5.47050410
Ti	18.03934071	6.26375541	5.54020885
O	21.90491037	7.33259269	3.92797122
O	8.48665295	2.19707952	3.97093028
O	23.77140820	2.10758899	3.93086338
O	8.63237704	9.54214269	5.09022296
O	23.77387680	9.69846579	4.76431113
O	21.83545679	4.33642014	4.84019460
O	21.74644994	0.60757762	5.72841020
O	8.55211466	5.81950792	5.88986937
O	23.89633815	5.81242181	5.61712076
O	8.44731133	2.84425938	6.42114951
O	23.85048053	2.79893035	6.39536351
O	21.99914185	8.12144608	6.28326458
O	10.30436116	7.36812972	3.89022117
O	25.78905956	7.33923486	3.96357084
O	13.99874720	7.41635550	3.99302895
O	29.41093831	7.25810991	3.89941938
O	18.09801886	7.34977463	3.96869801
O	12.57797495	2.11652920	3.94567775
O	27.39342077	2.08456437	3.86550455
O	16.20880224	2.17517501	3.97282158
O	19.74559865	2.10328926	3.95492557
O	12.37819970	9.63885424	4.75663386
O	27.58756115	9.75753527	4.84908075
O	16.12079236	9.74913106	4.51876470
O	19.93190905	9.59849141	4.83701671
O	10.45404344	4.35715060	4.93804180
O	25.64123006	4.25287108	4.89677332
O	14.20510531	4.34769219	4.91577505
O	29.58354553	4.40856740	4.77472491
O	18.02383570	4.40822921	4.69509814
O	10.48276410	0.58222130	5.86597386
O	25.57555842	0.49413750	5.68459456
O	14.16422169	0.54162364	5.89739780
O	29.46858345	0.76749609	5.36907078
O	17.88053679	0.52076921	5.94418213
O	12.27405777	5.86519061	5.67839949
O	27.70493342	5.81443767	5.61424141
O	16.15165500	5.91158664	5.72989578
O	19.97270541	5.78166321	5.86335291
O	12.33085014	2.79176766	6.39601728
O	27.46274642	2.69541480	6.40394265
O	16.19283424	2.85966674	6.41092468
O	19.75509753	2.81475922	6.35708802
O	10.56305509	8.01545863	6.34694154
O	25.89297798	8.04120589	6.27943700
O	14.34538977	7.97310106	6.39911079
O	29.66024200	8.08054393	6.29364053
O	17.93206032	7.94567621	6.37739968
Ti	6.68934340	19.64574273	4.69102706
Ti	6.69289671	30.16274485	4.80620886
Ti	6.66915521	16.72374592	5.45616373
Ti	6.59655894	27.31831987	5.46512306
Ti	2.91934537	19.62224141	4.66806032
Ti	2.72319533	30.09383316	4.82580458
Ti	0.87601662	14.42219513	4.72172552
Ti	0.90223572	24.96160364	4.82693406
Ti	4.81092242	14.51606130	4.70270062
Ti	4.82033194	24.94508531	4.66891738
Ti	0.90937616	11.56924550	5.48985872
Ti	0.93427330	21.96300557	5.50660033
Ti	4.63455401	11.60197756	5.60030419
Ti	4.75253745	22.10036877	5.54359168
Ti	2.83726009	16.68169998	5.44337391
Ti	2.76525288	27.23061751	5.57826064
O	6.58406576	17.88464648	3.91830715
O	6.75983751	28.34431651	3.89065526
O	6.67096915	14.80656763	4.85567752
O	6.66566604	25.38418308	4.92471247
O	6.60942072	11.06498615	5.74564896
O	6.62160393	21.71719215	5.82463839
O	6.88775140	18.49518170	6.33297557
O	6.65305652	29.03290821	6.33608459
O	2.98306545	17.85832315	3.92968100
O	2.63326347	28.32465889	3.88650930
O	0.67522701	12.52371574	3.85638950
O	0.84870604	23.15795010	4.03154252
O	4.85302840	12.64944898	3.99489989
O	4.58524533	23.12178273	4.01008047
O	0.99376399	20.03541605	4.70797273
O	0.78142665	30.67869659	4.87057135
O	4.77488250	20.13343476	4.76854189
O	4.67206176	30.55360970	4.88738280
O	2.79730536	14.85865458	4.65957355
O	2.76790194	25.31903980	4.77787967
O	2.77539244	11.02451607	5.90107747
O	2.81145712	21.43152429	5.86576618
O	0.87004721	16.22366373	5.81861402
O	0.84889714	26.85098599	5.82172998
O	4.72712653	16.19356688	5.73578032
O	4.67175148	26.86099727	5.49129929
O	1.07047092	13.30211597	6.30891283
O	0.85571561	23.69333117	6.47194231
O	4.68537951	13.31294233	6.40383513
O	4.62363287	23.79822188	6.39110044
O	2.78865047	18.48145628	6.35529458
O	2.67164198	29.07444145	6.41008318
Ti	21.82632940	19.81136652	4.77657436
Ti	21.71653247	30.27557777	4.69515144
Ti	8.60215217	14.46894760	4.80179342
Ti	8.56199009	25.05108585	4.76520702
Ti	23.71135479	14.58199289	4.70693284
Ti	23.75565858	25.05906360	4.75132842
Ti	8.55951563	11.53640967	5.42639654
Ti	8.51424795	22.07945691	5.47199439
Ti	23.81075916	11.53277535	5.45634346
Ti	23.67446824	22.16970264	5.48020414
Ti	21.82744044	16.94159688	5.65216017
Ti	21.76664455	27.30148573	5.60348375
Ti	10.40861198	19.72447517	4.73873162
Ti	10.43073669	30.27095466	4.79837167
Ti	25.67028982	19.76608493	4.80563631
Ti	25.58974652	30.22320210	4.68354272
Ti	14.22685292	19.74663511	4.80299966
Ti	14.14118206	30.14816947	4.71019101
Ti	29.53665210	19.58193392	4.69722903
Ti	29.36599755	30.30641448	4.70197464
Ti	17.97392316	19.76971088	4.78133631
Ti	17.92177647	30.14234160	4.82101207
Ti	12.34460263	14.44044539	4.73290692
Ti	12.36424424	24.94950512	4.86750368
Ti	27.55723824	14.44719104	4.85609683
Ti	27.54106717	25.00234846	4.87302719
Ti	16.19052018	14.54975297	4.69105686
Ti	16.19351249	24.95180479	4.60854567
Ti	19.93211083	14.44480854	5.00606634
Ti	19.89551930	25.02771063	4.77128779
Ti	12.40946993	11.53577202	5.48437392
Ti	12.41221274	22.05539263	5.44371725
Ti	27.67088430	11.55878790	5.55172282
Ti	27.61513596	22.01225372	5.51235952
Ti	16.03213340	11.55874848	5.44935729
Ti	16.04282093	22.09958466	5.47557298
Ti	19.94916245	11.52522191	5.62349892
Ti	19.88723156	22.10866799	5.55515774
Ti	10.40442900	16.82557978	5.44612289
Ti	10.48618703	27.35250088	5.64905364
Ti	25.72351623	16.86028355	5.43034052
Ti	25.61056045	27.34741517	5.53723392
Ti	14.31219703	16.85110374	5.76841261
Ti	14.28141608	27.28794124	5.61630919
Ti	29.53359224	16.77125050	5.56806583
Ti	29.44539843	27.35310087	5.48829974
Ti	18.02920405	16.83581400	5.54480626
Ti	18.06814907	27.22934925	5.56515676
O	21.93672598	17.81090236	3.96762946
O	21.78514919	28.35937814	3.96829381
O	8.55762236	12.62033731	3.92278166
O	8.61328571	23.13662631	3.90194930
O	23.76458937	12.69458440	4.00159038
O	23.63225861	23.10260920	3.88435516
O	8.52893089	20.26024389	4.72636311
O	8.55660030	30.80707567	4.87318100
O	23.78975985	20.22287971	4.69101305
O	23.70228485	30.54610377	4.85559493
O	21.77791675	14.81864636	4.91946953
O	21.85339840	25.53257521	4.78707483
O	21.81474893	10.91866766	5.76471684
O	21.78955178	21.65064846	5.73753561
O	8.50104886	16.25070493	5.75964064
O	8.57430218	26.86488810	5.78334438
O	23.76271207	16.37353377	5.78470339
O	23.70373955	27.01061026	5.88483900
O	8.61521523	13.21126569	6.24468881
O	8.58437760	23.80517261	6.29584630
O	23.82588592	13.24007905	6.38883291
O	23.72770950	23.90243122	6.28669808
O	21.83779770	18.64870221	6.45801334
O	21.51736969	29.02897215	6.28054068
O	10.19022871	17.87785857	3.95853597
O	10.48973408	28.36533320	4.01525632
O	25.60093618	17.82897672	3.90886537
O	25.58668889	28.24043910	3.96463252
O	14.31494588	17.88307732	4.01127064
O	14.06266886	28.18473235	3.99607562
O	29.44665503	17.66764768	3.88160905
O	29.46210302	28.36662122	3.90880702
O	18.13627493	17.90999522	3.98407364
O	18.06093851	28.37872377	3.95139499
O	12.45952411	12.59391049	3.90696267
O	12.43870697	23.05346047	3.92926567
O	27.59627013	12.61230384	3.98455252
O	27.55728098	23.20297377	3.91842215
O	16.00958866	12.68039148	3.90945057
O	16.01598090	23.04791531	3.84115406
O	20.03196900	12.61993369	3.98603772
O	20.01318158	23.16825209	3.96903442
O	12.24628889	20.18033581	4.70091817
O	12.29164412	30.70729163	4.71029890
O	27.57433844	20.06930895	4.83305613
O	27.48026264	30.53329654	4.89852801
O	16.12150985	20.15771470	4.84704166
O	16.03384909	30.70093980	4.77658589
O	19.94165569	20.18003972	4.96020101
O	19.80765957	30.63863424	4.78871849
O	10.49874858	14.88255042	4.80568296
O	10.46008456	25.50210764	4.81179776
O	25.68014647	14.95711077	4.77592182
O	25.74100904	25.38912860	4.85309955
O	14.22898844	15.06539814	4.82193645
O	14.24520527	25.27215821	4.85600931
O	29.46603494	14.88858082	4.73046713
O	29.51274029	25.48544123	4.93589064
O	18.01524556	14.94295326	4.92401105
O	18.03291435	25.53286155	4.52916167
O	10.47105731	11.18601782	5.52066403
O	10.38236788	21.61389377	5.81216371
O	25.72534300	11.11927760	5.73522787
O	25.63931536	21.73233073	5.64246002
O	14.24317723	10.96248771	5.93966601
O	14.25239809	21.56073255	5.80540314
O	29.55528945	11.00253931	5.96910243
O	29.54783013	21.49906800	5.79653257
O	18.03030032	11.02085763	5.93332426
O	17.97999537	21.59582632	5.76807619
O	12.29468166	16.37739330	5.49388428
O	12.37715207	26.76693502	5.98052245
O	27.60118850	16.19017618	5.77555641
O	27.60295276	26.89616452	5.79940461
O	16.16549770	16.35051083	5.67371129
O	16.26569445	26.63828671	5.79131918
O	19.93149509	16.37634216	5.72375067
O	19.98710045	26.79420146	5.93829659
O	12.42616383	13.27139741	6.28796724
O	12.26371161	23.77558898	6.37441389
O	27.56080650	13.44702418	6.49165048
O	27.67190973	23.78908411	6.36476559
O	15.87364391	13.36515569	6.28280767
O	16.30386583	23.78977742	6.22969473
O	20.05834506	13.25000782	6.49601920
O	19.72877673	23.85905083	6.26879882
O	10.39341242	18.53192699	6.33879923
O	10.50254190	29.10020591	6.36318763
O	25.69787408	18.62541549	6.32598101
O	25.72122881	29.09947989	6.38488753
O	14.15036312	18.70354663	6.43459340
O	14.37382608	29.10339301	6.40009957
O	29.43149444	18.56619051	6.28238841
O	29.43518640	29.15555091	6.43512462
O	18.08274391	18.50105468	6.45973281
O	17.93325064	28.94058639	6.38468266
H	16.09728352	14.68021944	7.85999142
H	15.64013890	15.21869325	11.13496911
H	13.06734029	17.84097551	9.05253565
O	14.45012385	16.30714825	7.56588849
O	15.82567006	15.10072878	8.69630097
C	14.81895035	15.92004705	8.71508520
C	14.45382079	16.51124712	9.97043563
C	14.95495065	16.07665267	11.20107016
C	13.58699466	17.61819793	9.98654929
N	13.01769221	19.35524605	15.81617947
N	15.61057320	22.41558431	16.84859257
N	15.17280580	20.91228452	14.42116931
N	13.33354942	21.04583228	18.14341437
C	20.29873860	23.90647405	13.60969572
C	16.43570968	23.45082692	22.45963952
C	8.05842542	18.56899830	18.81402621
C	17.90241769	23.36981803	13.86533628
C	15.17125004	23.42698530	20.44640813
C	10.47027400	18.52087101	18.47339596
C	18.64493663	24.91032896	12.07934764
C	14.78570940	25.17710688	22.11007673
C	9.37829976	16.64501790	19.55718402
C	13.97562404	18.88838580	13.57401350
C	16.87501382	22.69538624	14.68894013
C	14.89034937	22.70950521	19.21060840
C	11.64940212	19.22604947	17.86686910
C	14.91368474	19.94811938	13.51906625
C	16.14067703	21.75024266	13.94893271
C	13.80995534	21.83690050	19.15550087
C	12.27946733	20.29720784	18.61055529
C	15.66426845	20.22020532	12.35582807
C	16.42056623	21.35096002	12.59335290
C	12.98304271	21.57112741	20.30938296
C	12.01892552	20.69427465	19.97378384
C	13.11321486	18.62609529	14.67059362
C	16.56633061	23.01014371	16.06781351
C	15.59080159	23.06415120	18.06144217
C	12.02696054	18.80502213	16.58429475
C	12.05492188	17.64227022	14.64554073
C	17.25267213	24.05474325	16.82945997
C	16.65960126	24.08694188	18.07118568
C	11.38631159	17.75729746	15.81893722
H	11.86363570	16.95814943	13.80501010
H	18.06964231	24.64249730	16.42101668
H	16.76771197	24.73094556	18.95806653
H	10.60684272	17.02068066	16.13658195
H	15.66785169	19.52548567	11.46211045
H	17.12284015	21.87979376	11.88076164
H	13.06754921	21.98774726	21.30740670
H	11.21729962	20.33353415	20.61756914
H	18.27604529	25.60601958	11.33987058
H	14.21235846	26.07534259	22.45721864
H	9.37181641	15.69205395	20.03100805
H	21.34727092	23.64372677	13.81514157
H	17.27264428	23.09969772	23.09930100
H	7.10240805	19.13269774	18.96938844
H	14.66362809	21.01507651	15.30718090
H	13.91838772	20.82392442	17.34229454
C	21.14888384	25.44202031	11.89409340
H	20.87846232	26.55462983	11.93113442
H	21.28713348	25.21417688	10.86852486
H	22.10200322	25.41184668	12.45182686
C	19.57378897	22.20642109	15.29870675
H	18.98521000	21.24539853	15.22247801
H	19.35555657	22.71548674	16.28436148
H	20.59865166	21.84400384	15.19752749
C	16.23572335	24.61985615	12.55068154
H	15.81027870	24.19345699	11.58963493
H	16.15367082	25.71936025	12.37558653
H	15.56028391	24.23540907	13.28813353
C	11.85371221	16.57257442	19.17564610
H	11.87315270	15.87014597	20.04228600
H	12.61849893	17.37040530	19.23756143
H	12.06142892	15.90839763	18.31649012
C	9.05562811	20.36095627	17.37730746
H	7.98136073	20.66972620	17.45400468
H	9.20447432	20.22086790	16.28602596
H	9.59878169	21.25210920	17.73532792
C	6.90816399	16.80775965	20.06043151
H	6.78676997	17.23441711	21.04348752
H	6.96479120	15.73723549	20.28426105
H	6.04736321	17.04274218	19.41831140
C	13.68436680	25.39752844	19.92348668
H	12.97871352	24.73956993	19.40396432
H	14.32219820	25.86970683	19.15514432
H	13.13486185	26.12695678	20.54154276
C	16.70707586	21.49047204	20.94252338
H	15.98849909	20.64771412	20.68195565
H	17.41732567	21.15719174	21.75244825
H	17.19822124	21.60581849	19.98393417
C	16.12203346	25.32700055	24.20121588
H	15.19514030	25.74493906	24.65322384
H	16.83863692	26.10979229	23.98089845
H	16.64778976	24.67616115	24.90768850
C	19.96569078	24.74462580	12.51646421
C	19.26511429	23.17363961	14.22394413
C	17.62247984	24.23845872	12.79419243
C	14.54191777	24.63257702	20.87120937
C	16.09169509	22.82846208	21.30638653
C	15.81175568	24.62115444	22.91640844
C	10.53692918	17.28997877	19.10378432
C	9.20339312	19.13737369	18.21505607
C	8.16998754	17.35288444	19.49477084
H	15.07229255	16.31444400	13.29881801
H	12.68790181	19.25322668	11.11878098
C	14.02278446	17.97675219	12.36949233
C	14.74921099	16.78419253	12.38860330
C	13.37227636	18.36184978	11.15516987

Ti O H C N 0
6-31G*
****

