%chk=f00017447.chk
%mem=24GB
%nproc=12
#p b3lyp/6-31G*

title

0 1
Ti	2.81187400	0.19704000	1.10336000
Ti	0.90594400	5.44057000	1.10336000
Ti	4.71781400	5.44057000	1.10336000
Ti	0.90594400	2.47241000	1.99114000
Ti	4.71781400	2.47241000	1.99114000
Ti	2.81187400	7.71594000	1.99115000
O	2.81187400	8.81302000	0.37332000
O	0.90594400	3.56949000	0.37332000
O	4.71781400	3.56949000	0.37332000
O	0.90594400	0.60134000	1.26110000
O	4.71781400	0.60134000	1.26110000
O	2.81187400	5.84486000	1.26111000
O	2.81187400	2.06812000	1.83340000
O	0.90594400	7.31164000	1.83340000
O	4.71781400	7.31164000	1.83340000
O	0.90594400	4.34349000	2.72118000
O	4.71781400	4.34349000	2.72118000
O	2.81187400	9.58701000	2.72118000
Ti	6.62374588	0.19704000	1.10336000
Ti	21.87123776	0.19704000	1.10336000
Ti	8.52968588	5.44057000	1.10336000
Ti	23.77717776	5.44057000	1.10336000
Ti	8.52968588	2.47241000	1.99114000
Ti	23.77717776	2.47241000	1.99114000
Ti	6.62374588	7.71594000	1.99115000
Ti	21.87123776	7.71594000	1.99115000
Ti	10.43561588	0.19704000	1.10336000
Ti	25.68310776	0.19704000	1.10336000
Ti	14.24749588	0.19704000	1.10336000
Ti	29.49498776	0.19704000	1.10336000
Ti	18.05936588	0.19704000	1.10336000
Ti	12.34155588	5.44057000	1.10336000
Ti	27.58904776	5.44057000	1.10336000
Ti	16.15343588	5.44057000	1.10336000
Ti	19.96530588	5.44057000	1.10336000
Ti	12.34155588	2.47241000	1.99114000
Ti	27.58904776	2.47241000	1.99114000
Ti	16.15343588	2.47241000	1.99114000
Ti	19.96530588	2.47241000	1.99114000
Ti	10.43561588	7.71594000	1.99115000
Ti	25.68310776	7.71594000	1.99115000
Ti	14.24749588	7.71594000	1.99115000
Ti	29.49498776	7.71594000	1.99115000
Ti	18.05936588	7.71594000	1.99115000
O	6.62374588	8.81302000	0.37332000
O	21.87123776	8.81302000	0.37332000
O	8.52968588	3.56949000	0.37332000
O	23.77717776	3.56949000	0.37332000
O	8.52968588	0.60134000	1.26110000
O	23.77717776	0.60134000	1.26110000
O	6.62374588	5.84486000	1.26111000
O	21.87123776	5.84486000	1.26111000
O	6.62374588	2.06812000	1.83340000
O	21.87123776	2.06812000	1.83340000
O	8.52968588	7.31164000	1.83340000
O	23.77717776	7.31164000	1.83340000
O	8.52968588	4.34349000	2.72118000
O	23.77717776	4.34349000	2.72118000
O	6.62374588	9.58701000	2.72118000
O	21.87123776	9.58701000	2.72118000
O	10.43561588	8.81302000	0.37332000
O	25.68310776	8.81302000	0.37332000
O	14.24749588	8.81302000	0.37332000
O	29.49498776	8.81302000	0.37332000
O	18.05936588	8.81302000	0.37332000
O	12.34155588	3.56949000	0.37332000
O	27.58904776	3.56949000	0.37332000
O	16.15343588	3.56949000	0.37332000
O	19.96530588	3.56949000	0.37332000
O	12.34155588	0.60134000	1.26110000
O	27.58904776	0.60134000	1.26110000
O	16.15343588	0.60134000	1.26110000
O	19.96530588	0.60134000	1.26110000
O	10.43561588	5.84486000	1.26111000
O	25.68310776	5.84486000	1.26111000
O	14.24749588	5.84486000	1.26111000
O	29.49498776	5.84486000	1.26111000
O	18.05936588	5.84486000	1.26111000
O	10.43561588	2.06812000	1.83340000
O	25.68310776	2.06812000	1.83340000
O	14.24749588	2.06812000	1.83340000
O	29.49498776	2.06812000	1.83340000
O	18.05936588	2.06812000	1.83340000
O	12.34155588	7.31164000	1.83340000
O	27.58904776	7.31164000	1.83340000
O	16.15343588	7.31164000	1.83340000
O	19.96530588	7.31164000	1.83340000
O	12.34155588	4.34349000	2.72118000
O	27.58904776	4.34349000	2.72118000
O	16.15343588	4.34349000	2.72118000
O	19.96530588	4.34349000	2.72118000
O	10.43561588	9.58701000	2.72118000
O	25.68310776	9.58701000	2.72118000
O	14.24749588	9.58701000	2.72118000
O	29.49498776	9.58701000	2.72118000
O	18.05936588	9.58701000	2.72118000
Ti	2.81187400	10.68408607	1.10336000
Ti	2.81187400	21.17113214	1.10336000
Ti	0.90594400	15.92761607	1.10336000
Ti	0.90594400	26.41466214	1.10336000
Ti	4.71781400	15.92761607	1.10336000
Ti	4.71781400	26.41466214	1.10336000
Ti	0.90594400	12.95945607	1.99114000
Ti	0.90594400	23.44650214	1.99114000
Ti	4.71781400	12.95945607	1.99114000
Ti	4.71781400	23.44650214	1.99114000
Ti	2.81187400	18.20298607	1.99115000
Ti	2.81187400	28.69003214	1.99115000
O	2.81187400	19.30006607	0.37332000
O	2.81187400	29.78711214	0.37332000
O	0.90594400	14.05653607	0.37332000
O	0.90594400	24.54358214	0.37332000
O	4.71781400	14.05653607	0.37332000
O	4.71781400	24.54358214	0.37332000
O	0.90594400	11.08838607	1.26110000
O	0.90594400	21.57543214	1.26110000
O	4.71781400	11.08838607	1.26110000
O	4.71781400	21.57543214	1.26110000
O	2.81187400	16.33190607	1.26111000
O	2.81187400	26.81895214	1.26111000
O	2.81187400	12.55516607	1.83340000
O	2.81187400	23.04221214	1.83340000
O	0.90594400	17.79868607	1.83340000
O	0.90594400	28.28573214	1.83340000
O	4.71781400	17.79868607	1.83340000
O	4.71781400	28.28573214	1.83340000
O	0.90594400	14.83053607	2.72118000
O	0.90594400	25.31758214	2.72118000
O	4.71781400	14.83053607	2.72118000
O	4.71781400	25.31758214	2.72118000
O	2.81187400	20.07405607	2.72118000
O	2.81187400	30.56110214	2.72118000
Ti	6.62374588	10.68408607	1.10336000
Ti	6.62374588	21.17113214	1.10336000
Ti	21.87123776	10.68408607	1.10336000
Ti	21.87123776	21.17113214	1.10336000
Ti	8.52968588	15.92761607	1.10336000
Ti	8.52968588	26.41466214	1.10336000
Ti	23.77717776	15.92761607	1.10336000
Ti	23.77717776	26.41466214	1.10336000
Ti	8.52968588	12.95945607	1.99114000
Ti	8.52968588	23.44650214	1.99114000
Ti	23.77717776	12.95945607	1.99114000
Ti	23.77717776	23.44650214	1.99114000
Ti	6.62374588	18.20298607	1.99115000
Ti	6.62374588	28.69003214	1.99115000
Ti	21.87123776	18.20298607	1.99115000
Ti	21.87123776	28.69003214	1.99115000
Ti	10.43561588	10.68408607	1.10336000
Ti	10.43561588	21.17113214	1.10336000
Ti	25.68310776	10.68408607	1.10336000
Ti	25.68310776	21.17113214	1.10336000
Ti	14.24749588	10.68408607	1.10336000
Ti	14.24749588	21.17113214	1.10336000
Ti	29.49498776	10.68408607	1.10336000
Ti	29.49498776	21.17113214	1.10336000
Ti	18.05936588	10.68408607	1.10336000
Ti	18.05936588	21.17113214	1.10336000
Ti	12.34155588	15.92761607	1.10336000
Ti	12.34155588	26.41466214	1.10336000
Ti	27.58904776	15.92761607	1.10336000
Ti	27.58904776	26.41466214	1.10336000
Ti	16.15343588	15.92761607	1.10336000
Ti	16.15343588	26.41466214	1.10336000
Ti	19.96530588	15.92761607	1.10336000
Ti	19.96530588	26.41466214	1.10336000
Ti	12.34155588	12.95945607	1.99114000
Ti	12.34155588	23.44650214	1.99114000
Ti	27.58904776	12.95945607	1.99114000
Ti	27.58904776	23.44650214	1.99114000
Ti	16.15343588	12.95945607	1.99114000
Ti	16.15343588	23.44650214	1.99114000
Ti	19.96530588	12.95945607	1.99114000
Ti	19.96530588	23.44650214	1.99114000
Ti	10.43561588	18.20298607	1.99115000
Ti	10.43561588	28.69003214	1.99115000
Ti	25.68310776	18.20298607	1.99115000
Ti	25.68310776	28.69003214	1.99115000
Ti	14.24749588	18.20298607	1.99115000
Ti	14.24749588	28.69003214	1.99115000
Ti	29.49498776	18.20298607	1.99115000
Ti	29.49498776	28.69003214	1.99115000
Ti	18.05936588	18.20298607	1.99115000
Ti	18.05936588	28.69003214	1.99115000
O	6.62374588	19.30006607	0.37332000
O	6.62374588	29.78711214	0.37332000
O	21.87123776	19.30006607	0.37332000
O	21.87123776	29.78711214	0.37332000
O	8.52968588	14.05653607	0.37332000
O	8.52968588	24.54358214	0.37332000
O	23.77717776	14.05653607	0.37332000
O	23.77717776	24.54358214	0.37332000
O	8.52968588	11.08838607	1.26110000
O	8.52968588	21.57543214	1.26110000
O	23.77717776	11.08838607	1.26110000
O	23.77717776	21.57543214	1.26110000
O	6.62374588	16.33190607	1.26111000
O	6.62374588	26.81895214	1.26111000
O	21.87123776	16.33190607	1.26111000
O	21.87123776	26.81895214	1.26111000
O	6.62374588	12.55516607	1.83340000
O	6.62374588	23.04221214	1.83340000
O	21.87123776	12.55516607	1.83340000
O	21.87123776	23.04221214	1.83340000
O	8.52968588	17.79868607	1.83340000
O	8.52968588	28.28573214	1.83340000
O	23.77717776	17.79868607	1.83340000
O	23.77717776	28.28573214	1.83340000
O	8.52968588	14.83053607	2.72118000
O	8.52968588	25.31758214	2.72118000
O	23.77717776	14.83053607	2.72118000
O	23.77717776	25.31758214	2.72118000
O	6.62374588	20.07405607	2.72118000
O	6.62374588	30.56110214	2.72118000
O	21.87123776	20.07405607	2.72118000
O	21.87123776	30.56110214	2.72118000
O	10.43561588	19.30006607	0.37332000
O	10.43561588	29.78711214	0.37332000
O	25.68310776	19.30006607	0.37332000
O	25.68310776	29.78711214	0.37332000
O	14.24749588	19.30006607	0.37332000
O	14.24749588	29.78711214	0.37332000
O	29.49498776	19.30006607	0.37332000
O	29.49498776	29.78711214	0.37332000
O	18.05936588	19.30006607	0.37332000
O	18.05936588	29.78711214	0.37332000
O	12.34155588	14.05653607	0.37332000
O	12.34155588	24.54358214	0.37332000
O	27.58904776	14.05653607	0.37332000
O	27.58904776	24.54358214	0.37332000
O	16.15343588	14.05653607	0.37332000
O	16.15343588	24.54358214	0.37332000
O	19.96530588	14.05653607	0.37332000
O	19.96530588	24.54358214	0.37332000
O	12.34155588	11.08838607	1.26110000
O	12.34155588	21.57543214	1.26110000
O	27.58904776	11.08838607	1.26110000
O	27.58904776	21.57543214	1.26110000
O	16.15343588	11.08838607	1.26110000
O	16.15343588	21.57543214	1.26110000
O	19.96530588	11.08838607	1.26110000
O	19.96530588	21.57543214	1.26110000
O	10.43561588	16.33190607	1.26111000
O	10.43561588	26.81895214	1.26111000
O	25.68310776	16.33190607	1.26111000
O	25.68310776	26.81895214	1.26111000
O	14.24749588	16.33190607	1.26111000
O	14.24749588	26.81895214	1.26111000
O	29.49498776	16.33190607	1.26111000
O	29.49498776	26.81895214	1.26111000
O	18.05936588	16.33190607	1.26111000
O	18.05936588	26.81895214	1.26111000
O	10.43561588	12.55516607	1.83340000
O	10.43561588	23.04221214	1.83340000
O	25.68310776	12.55516607	1.83340000
O	25.68310776	23.04221214	1.83340000
O	14.24749588	12.55516607	1.83340000
O	14.24749588	23.04221214	1.83340000
O	29.49498776	12.55516607	1.83340000
O	29.49498776	23.04221214	1.83340000
O	18.05936588	12.55516607	1.83340000
O	18.05936588	23.04221214	1.83340000
O	12.34155588	17.79868607	1.83340000
O	12.34155588	28.28573214	1.83340000
O	27.58904776	17.79868607	1.83340000
O	27.58904776	28.28573214	1.83340000
O	16.15343588	17.79868607	1.83340000
O	16.15343588	28.28573214	1.83340000
O	19.96530588	17.79868607	1.83340000
O	19.96530588	28.28573214	1.83340000
O	12.34155588	14.83053607	2.72118000
O	12.34155588	25.31758214	2.72118000
O	27.58904776	14.83053607	2.72118000
O	27.58904776	25.31758214	2.72118000
O	16.15343588	14.83053607	2.72118000
O	16.15343588	25.31758214	2.72118000
O	19.96530588	14.83053607	2.72118000
O	19.96530588	25.31758214	2.72118000
O	10.43561588	20.07405607	2.72118000
O	10.43561588	30.56110214	2.72118000
O	25.68310776	20.07405607	2.72118000
O	25.68310776	30.56110214	2.72118000
O	14.24749588	20.07405607	2.72118000
O	14.24749588	30.56110214	2.72118000
O	29.49498776	20.07405607	2.72118000
O	29.49498776	30.56110214	2.72118000
O	18.05936588	20.07405607	2.72118000
O	18.05936588	30.56110214	2.72118000
Ti	6.63835413	9.20353326	4.84086822
Ti	6.62868823	6.26770053	5.43220839
Ti	2.90705150	9.15576452	4.78376387
Ti	0.87192371	3.98455680	4.80150421
Ti	4.68826162	3.93140834	4.63864446
Ti	0.92887100	1.01764374	5.45778943
Ti	4.66111773	1.02825831	5.45405547
Ti	2.84048850	6.20732941	5.37646939
O	6.53568952	7.39941045	3.89456821
O	6.65187965	4.34040641	4.81118291
O	6.58080097	0.55277402	5.60642060
O	6.56498386	7.96854513	6.40471204
O	2.81069213	7.28340073	3.83890218
O	1.14655683	2.01514886	3.87897477
O	4.55672369	2.03265396	3.84441395
O	1.04813101	9.47568890	4.70653768
O	4.76744808	9.56217687	4.73309397
O	2.82825962	4.31680484	4.67953709
O	2.84807460	0.52724227	5.90927907
O	1.05641006	5.76624489	5.86647981
O	4.75023181	5.72455684	5.66328095
O	0.88334066	2.75506804	6.36225864
O	4.72529191	2.80357893	6.27298057
O	2.77197941	7.90624142	6.33884437
Ti	21.86792993	9.22197368	4.78303871
Ti	8.53869455	4.02539868	4.77352820
Ti	23.68739196	3.99053154	4.75167279
Ti	8.49651028	1.08798615	5.51875100
Ti	23.67275637	1.10520540	5.49727724
Ti	21.76084914	6.32466578	5.43376296
Ti	10.50698531	9.23212080	4.74419675
Ti	25.69615682	9.25475497	4.87247342
Ti	14.30667970	9.17175727	4.71338823
Ti	29.46205967	9.17459689	4.71312933
Ti	18.20872343	9.28772768	4.63499786
Ti	12.29422659	3.98756155	4.81988529
Ti	27.55390077	4.05606120	4.68150314
Ti	16.13566683	3.97141621	4.70367804
Ti	19.92961644	3.88190214	4.67377213
Ti	12.28881631	1.03647962	5.46170104
Ti	27.58769538	1.09480247	5.52900958
Ti	16.13217934	1.08707014	5.52264457
Ti	19.90372205	0.99721268	5.51626026
Ti	10.39336198	6.33317250	5.50701410
Ti	25.71596893	6.31573745	5.44186098
Ti	14.17170483	6.30801921	5.50625730
Ti	29.71735718	6.30747014	5.49930054
Ti	17.98725373	6.26179732	5.51758138
O	21.75885207	7.34906408	3.89236200
O	8.53485360	2.10513920	3.89020086
O	23.66142741	2.17887012	3.92661815
O	8.55268106	9.62955117	4.77476427
O	23.73026419	9.62239943	4.70580780
O	21.81918889	4.22814760	4.83678222
O	21.81462939	0.54669143	5.76971381
O	8.55129882	5.81902610	5.66881321
O	23.72150482	5.91612123	5.60757672
O	8.45183704	2.77498402	6.37015416
O	23.77881246	2.79340905	6.37326560
O	21.84009503	8.02506315	6.33587462
O	10.39228300	7.37645362	3.91864218
O	25.89225749	7.33458952	3.88196715
O	14.30749469	7.34185224	3.95204500
O	29.36869503	7.29013726	3.88965291
O	18.15232928	7.44909057	4.00939332
O	12.27271335	2.12220854	3.90378533
O	27.48685054	2.05675041	3.87694949
O	16.11165088	2.13595829	3.86793286
O	19.92631627	2.08770606	3.92812360
O	12.42487359	9.80913286	4.90242223
O	27.57173052	9.64546429	4.93199202
O	16.22935833	9.56371602	4.79164002
O	20.02868896	9.70336958	4.86365230
O	10.46405429	4.47341472	4.65190226
O	25.59103449	4.35572948	4.76495139
O	14.18742721	4.46949731	4.69984610
O	29.52196819	4.37388199	4.86802726
O	17.90907866	4.36066897	4.86426947
O	10.36105852	0.46640188	5.81181839
O	25.59361637	0.63064106	5.84733792
O	14.23705158	0.59045062	5.81258488
O	29.53451508	0.62780419	5.72844869
O	18.01540149	0.64129365	5.68834281
O	12.27961572	5.77212696	5.79524214
O	27.67787360	5.76097872	5.85104044
O	16.03550288	5.78607805	5.81293804
O	19.94491323	5.69747069	5.64709391
O	12.05926716	2.78414051	6.30934894
O	27.57624826	2.79082487	6.38346341
O	16.08489855	2.81964765	6.35130127
O	19.75853127	2.79083801	6.37365074
O	10.43963791	8.07488471	6.35658498
O	25.80206421	8.02411174	6.31965056
O	14.05651614	8.12224699	6.29195565
O	29.52753312	8.03327637	6.33035956
O	18.26500931	7.98345302	6.33474582
Ti	6.67005277	19.68235046	4.79303880
Ti	6.55338548	30.12951866	4.67541123
Ti	6.51011227	16.68975183	5.45565006
Ti	6.69236432	27.29157551	5.59384252
Ti	2.80181897	19.75082519	4.80250635
Ti	2.83946704	30.18446705	4.63469401
Ti	0.86444470	14.23127328	4.64949422
Ti	0.95007863	24.92692586	4.72680804
Ti	4.54538558	14.43428379	4.86469266
Ti	4.67421065	24.92412758	4.74807394
Ti	0.92460826	11.34331061	5.53786944
Ti	1.02114318	21.97296224	5.48652497
Ti	4.69200865	11.44652032	5.40412227
Ti	4.70129415	21.97416313	5.43945624
Ti	2.76722497	16.87773480	5.62408225
Ti	2.72434187	27.31881414	5.55678900
O	6.42577180	17.85519230	3.96422052
O	6.52300103	28.21089271	3.93775117
O	6.51895710	14.86491180	4.73974274
O	6.54055124	25.42438463	4.89826509
O	6.51508814	11.06168172	5.74018708
O	6.68853381	21.57995476	5.62712987
O	6.74365941	18.48170821	6.26775222
O	6.71994217	28.95750474	6.35628629
O	2.88336682	17.82877445	3.91345869
O	2.47142905	28.28272301	3.91936854
O	0.94244102	12.41058989	3.94557688
O	0.91863392	23.06015096	3.93200978
O	4.49703023	12.48755089	3.93950706
O	4.64753658	23.09147522	3.87412638
O	0.89908567	20.16013226	4.81702574
O	0.97822319	30.62771648	5.04565111
O	4.77492037	20.05805931	4.91201325
O	4.72207111	30.56503562	4.76621280
O	2.61393235	14.90815994	5.07019023
O	2.86043371	25.49954002	4.74385548
O	2.81822864	10.94707216	5.72691457
O	2.89784358	21.53781298	5.96914575
O	0.88411152	16.72164286	6.32841303
O	0.91707421	26.79308017	5.87574697
O	4.64876691	16.19802675	5.97159171
O	4.68096622	26.80419722	5.87477994
O	0.93856052	13.05949550	6.21569107
O	1.03941729	23.79463012	6.28367086
O	4.80581616	13.13757072	6.29879701
O	4.70813115	23.72548152	6.38807926
O	2.96886289	18.65061752	6.47390016
O	2.99441284	29.02696815	6.27088302
Ti	21.77954904	19.73901780	4.85831769
Ti	21.76331481	30.16981225	4.73667210
Ti	8.39807510	14.46227289	4.73143714
Ti	8.53016595	24.94576417	4.63589680
Ti	23.90031471	14.48004759	4.75961121
Ti	23.92392600	24.92746568	4.90371950
Ti	8.45401727	11.49372768	5.52431230
Ti	8.55315110	22.04575963	5.41472436
Ti	23.86545794	11.52177125	5.34127276
Ti	23.76143517	22.01020438	5.52455849
Ti	22.15586042	16.85404304	5.45980823
Ti	21.94453850	27.22401724	5.53624312
Ti	10.53432242	19.65359214	4.85994419
Ti	10.33887017	30.10782720	4.77050386
Ti	25.68811135	19.67095427	4.70363434
Ti	25.57056946	30.22365942	4.79560078
Ti	14.32596381	19.74531322	4.72498139
Ti	14.21084697	30.10453007	4.93934144
Ti	29.52226762	19.83196359	4.75005772
Ti	29.55625088	30.24218348	4.71110570
Ti	18.09904329	19.67148859	4.73137182
Ti	17.93629845	30.14589510	4.68582173
Ti	12.32295915	14.47508972	4.67176701
Ti	12.37421214	24.84306429	4.63680996
Ti	27.73799267	14.49205575	4.77549023
Ti	27.60451249	24.98397906	4.74392946
Ti	16.31369286	14.59053784	4.75028405
Ti	16.15629891	24.98874524	4.67184570
Ti	20.04988247	14.50466023	4.80749318
Ti	19.96275957	24.96453753	4.81456087
Ti	12.45664374	11.59420964	5.59601428
Ti	12.40812373	21.99077832	5.55101838
Ti	27.65468329	11.60215416	5.61323780
Ti	27.57187536	22.10889418	5.55692034
Ti	16.24759519	11.64337735	5.43503355
Ti	16.18223607	22.08277179	5.57320773
Ti	20.02475864	11.61003798	5.48935364
Ti	19.95007675	22.10274206	5.67457631
Ti	10.33859247	16.69367032	5.53144035
Ti	10.44131954	27.11982737	5.45037361
Ti	25.82219210	16.73814840	5.49588883
Ti	25.66803776	27.27888176	5.49344564
Ti	14.35829982	16.73334639	5.84009725
Ti	14.27358563	27.20590242	5.60592548
Ti	29.62620839	16.93206207	5.68376624
Ti	29.48234714	27.26948192	5.46904417
Ti	18.28112663	16.86186362	5.51313528
Ti	18.13315551	27.30397952	5.51704011
O	21.95490353	17.87619071	3.92818811
O	21.82084195	28.30958592	3.97815111
O	8.41226585	12.51158545	3.98868073
O	8.57248101	23.11234636	3.88327574
O	23.93351189	12.70140735	3.89692126
O	23.83320515	23.15686658	3.99038862
O	8.54366754	20.08579093	4.86915372
O	8.48859815	30.65193557	4.82166952
O	23.86163712	20.10693368	4.89501648
O	23.72963330	30.63894211	4.80745716
O	21.93996756	15.02705119	4.64369217
O	21.89997270	25.36898707	5.01266285
O	21.90287865	11.12906579	5.63080955
O	21.85026577	21.64549707	5.64643028
O	8.49263790	16.20494786	5.87381641
O	8.53847022	26.69922094	5.70747515
O	23.90217339	16.35081357	5.86399140
O	23.83006030	26.70979719	5.96358871
O	8.27186098	13.28292681	6.29129873
O	8.54228858	23.73495287	6.33190072
O	23.77815482	13.28579354	6.24136586
O	23.92518958	23.71963930	6.44734995
O	21.84007030	18.48012260	6.43456549
O	21.83161278	29.04592090	6.36002990
O	10.29827096	17.80192746	3.95203492
O	10.60139596	28.35205910	3.90198097
O	25.83981247	17.82215677	3.95960681
O	25.64127459	28.41295348	3.90842051
O	14.18613464	17.85456266	4.00084906
O	14.22591771	28.29386731	4.02115684
O	29.58996349	17.93200077	3.97571146
O	29.44040294	28.33859280	3.87722117
O	18.21094001	17.75410551	3.82941557
O	17.96468584	28.38982341	3.94378205
O	12.53077183	12.60600707	3.95968910
O	12.38480092	22.97694552	3.93934484
O	27.74145452	12.63565285	4.00513718
O	27.52236832	23.05578060	3.96717536
O	16.22018005	12.65142166	3.91369209
O	16.25295357	23.05871863	3.93400449
O	20.04091132	12.73015047	3.95322635
O	19.93835953	23.18441166	3.96188671
O	12.37048236	20.19589883	4.78359139
O	12.24650735	30.45350778	5.07140500
O	27.55791270	20.26887097	4.81426690
O	27.65732867	30.71078086	4.83210083
O	16.18773201	20.16399874	4.83967622
O	16.03326099	30.60677887	4.90251290
O	19.92993978	20.29428476	4.75960176
O	19.87826107	30.54574920	4.89811930
O	10.32199269	14.82911505	4.86202180
O	10.51148645	25.13562376	4.78562080
O	25.84589529	14.92813769	4.75956515
O	25.74913876	25.38988304	4.70848636
O	14.35579579	14.99873362	4.79993581
O	14.24470426	25.42252894	4.65235555
O	29.66613304	15.01037033	5.03363600
O	29.50816461	25.38754693	4.72956953
O	18.17721166	14.95160482	4.78437798
O	18.07984275	25.45275393	4.61974039
O	10.41329158	11.08819556	5.87830166
O	10.51827099	21.53928244	5.76831601
O	25.74264445	11.15470503	5.61857760
O	25.74645143	21.55530794	5.85383032
O	14.41933234	11.07497194	5.67223544
O	14.35103140	21.53062241	5.74828365
O	29.55885111	10.95894344	5.79295884
O	29.48730630	21.62430047	5.56813932
O	18.10382242	11.13003219	5.68599667
O	18.03557482	21.49626254	5.77703921
O	12.23631377	16.34643024	5.42732110
O	12.35686940	26.63373417	5.72955015
O	27.69023292	16.42821501	5.74835179
O	27.58731291	26.84251813	5.87388360
O	16.31500647	16.46978078	5.77737537
O	16.15880162	26.81825468	5.78416647
O	20.22206347	16.29263432	5.75392402
O	19.96180667	26.77720220	5.90210475
O	12.26734858	13.41488368	6.25033552
O	12.44214047	23.88690197	6.34765010
O	27.78422992	13.35768249	6.46598547
O	27.44066582	23.79265013	6.40973266
O	16.04904157	13.37167273	6.30310254
O	15.98831314	23.81700333	6.32014719
O	20.23627494	13.37408123	6.32944319
O	20.00357649	23.79807886	6.42583807
O	10.59245839	18.50811649	6.41048744
O	10.40888300	28.91769915	6.28982722
O	25.88541436	18.46361180	6.41604535
O	25.60709083	29.11600712	6.35046356
O	14.03803955	18.66022672	6.33169812
O	14.31168737	28.93446921	6.44114509
O	29.46533395	18.81418532	6.44973091
O	29.54901080	28.97306116	6.30280482
O	18.24800001	18.53976766	6.26963915
O	17.89955307	29.04001779	6.34813222
H	14.64459154	14.14652121	7.98498499
H	13.64738626	14.86695532	11.36862367
H	13.83180604	18.26221686	8.77241452
O	14.31847018	16.36338531	7.70728147
O	14.23380592	14.43950983	8.84044890
C	14.06430139	15.70807724	8.84684270
C	13.78672527	16.52697338	10.01301691
C	13.59747105	15.98287398	11.30887472
C	13.81582234	17.95134123	9.85063092
N	12.96966506	19.39084422	15.68505302
N	15.58428760	22.46990635	16.93676605
N	15.48793700	20.74242632	14.41963574
N	13.10607479	21.18643430	18.08777115
C	20.95820345	22.83756389	14.39392912
C	15.11659942	23.51281717	22.82222694
C	7.40611110	19.94279486	17.53276693
C	18.57138369	22.97632049	14.58593718
C	14.72473235	23.60691610	20.46454704
C	9.80298605	19.51021282	17.78604743
C	19.85575210	24.82332866	13.54835300
C	14.05535549	25.47059597	21.91338109
C	8.16621251	18.32515407	19.13898230
C	14.11115948	18.98374853	13.45997659
C	17.24556362	22.37528016	15.03296186
C	14.59572624	22.84361944	19.20595352
C	11.21150003	19.75331086	17.34485779
C	15.20828247	19.88085220	13.47263095
C	16.62199007	21.47527087	14.15257002
C	13.43088644	22.01569139	19.12748910
C	11.91645959	20.57609320	18.31583977
C	16.26297099	19.98991043	12.45412895
C	17.07867041	21.02613012	12.83671471
C	12.43017464	21.82403344	20.13690930
C	11.41576068	21.04661758	19.61757093
C	13.08364398	18.76639757	14.44808554
C	16.75535537	22.81232749	16.27749052
C	15.61182528	22.98838136	18.23499253
C	11.70073757	19.13055739	16.16857996
C	11.81562441	18.19131070	14.11285269
C	17.59376820	23.43654322	17.28174982
C	16.93217490	23.51922153	18.44093841
C	10.91047975	18.40929592	15.16891081
H	11.61907751	17.82532355	13.11066550
H	18.55540804	23.78338336	16.92725463
H	17.30670797	23.91449648	19.38167893
H	9.83235176	18.32092184	15.05590584
H	16.38165488	19.47283267	11.46835059
H	18.00950690	21.43045947	12.38027663
H	12.25122388	22.32189138	21.06879935
H	10.51343877	20.74885083	20.10299932
H	19.92115520	25.79442557	13.00114734
H	13.64907347	26.44492417	22.07173105
H	7.91268386	17.70311777	19.99243971
H	21.88096038	22.38880193	14.74966097
H	15.56028017	23.01927001	23.62566281
H	6.59992487	20.41182766	17.10257919
H	15.01691315	20.69684741	15.34957942
H	13.61415985	21.21190449	17.16234904
C	22.36448767	24.66752292	13.41528183
H	22.31261806	25.76020327	13.27803883
H	22.93778322	24.15562719	12.55604040
H	23.07134094	24.45679883	14.20892187
C	19.80214096	21.23250414	15.95896526
H	20.38083523	20.39188416	15.54333699
H	18.82488196	20.90279968	16.21668198
H	20.34470415	21.65427535	16.82851041
C	17.33153608	24.98956619	13.86616849
H	17.51304348	26.04121197	13.83361000
H	16.75676769	24.80738795	14.77120261
H	16.72727067	24.63881747	13.04778412
C	10.66630836	18.07490611	19.61208650
H	11.05788163	18.73829553	20.45571671
H	11.51845888	17.80886573	19.02259694
H	10.26428112	17.16363535	20.11317830
C	8.95776766	21.32798895	16.15329502
H	9.22891066	20.85131876	15.21387944
H	9.83023126	21.91923047	16.53771934
H	8.05355631	21.94034662	16.14101153
C	5.73046417	18.48432986	18.77405629
H	5.55243776	18.63338136	19.84188151
H	5.72078903	17.37098065	18.63448799
H	4.99700586	18.92300803	18.10443922
C	13.67634231	25.63457636	19.45810088
H	14.06426430	25.11623329	18.54942041
H	14.14802804	26.66985248	19.39887939
H	12.56139477	25.54692887	19.41279477
C	15.83169097	21.49473931	21.48411508
H	16.63302070	21.46555831	20.74235242
H	15.08139146	20.69053016	21.26715855
H	16.37198891	21.25380090	22.42469094
C	14.78017216	25.45697185	24.35642152
H	14.20704015	24.95516449	25.10565113
H	14.55177892	26.51257847	24.29887657
H	15.81330729	25.39142332	24.72520399
C	21.01710108	24.11626206	13.72788297
C	19.75317811	22.34124244	14.92359403
C	18.61643695	24.26448371	13.95641419
C	14.15545810	24.86261053	20.66081504
C	15.18662014	22.89259586	21.58225684
C	14.58681020	24.77141946	23.03638315
C	9.50208970	18.64588238	18.84157984
C	8.76019382	20.20658830	17.14328499
C	7.11312945	18.94486718	18.47724217
H	13.82338552	16.28552708	13.44013616
H	13.73820390	19.85607958	10.90258776
C	13.87591414	18.14429790	12.26763127
C	13.80228821	16.79050831	12.45264953
C	13.75239629	18.76038095	10.99440630

Ti O H C N 0
6-31G*
****

