%chk=f00019128.chk
%mem=24GB
%nproc=12
#p b3lyp/6-31G*

title

0 1
Ti	2.81187400	0.19704000	1.10336000
Ti	0.90594400	5.44057000	1.10336000
Ti	4.71781400	5.44057000	1.10336000
Ti	0.90594400	2.47241000	1.99114000
Ti	4.71781400	2.47241000	1.99114000
Ti	2.81187400	7.71594000	1.99115000
O	2.81187400	8.81302000	0.37332000
O	0.90594400	3.56949000	0.37332000
O	4.71781400	3.56949000	0.37332000
O	0.90594400	0.60134000	1.26110000
O	4.71781400	0.60134000	1.26110000
O	2.81187400	5.84486000	1.26111000
O	2.81187400	2.06812000	1.83340000
O	0.90594400	7.31164000	1.83340000
O	4.71781400	7.31164000	1.83340000
O	0.90594400	4.34349000	2.72118000
O	4.71781400	4.34349000	2.72118000
O	2.81187400	9.58701000	2.72118000
Ti	6.62374588	0.19704000	1.10336000
Ti	21.87123776	0.19704000	1.10336000
Ti	8.52968588	5.44057000	1.10336000
Ti	23.77717776	5.44057000	1.10336000
Ti	8.52968588	2.47241000	1.99114000
Ti	23.77717776	2.47241000	1.99114000
Ti	6.62374588	7.71594000	1.99115000
Ti	21.87123776	7.71594000	1.99115000
Ti	10.43561588	0.19704000	1.10336000
Ti	25.68310776	0.19704000	1.10336000
Ti	14.24749588	0.19704000	1.10336000
Ti	29.49498776	0.19704000	1.10336000
Ti	18.05936588	0.19704000	1.10336000
Ti	12.34155588	5.44057000	1.10336000
Ti	27.58904776	5.44057000	1.10336000
Ti	16.15343588	5.44057000	1.10336000
Ti	19.96530588	5.44057000	1.10336000
Ti	12.34155588	2.47241000	1.99114000
Ti	27.58904776	2.47241000	1.99114000
Ti	16.15343588	2.47241000	1.99114000
Ti	19.96530588	2.47241000	1.99114000
Ti	10.43561588	7.71594000	1.99115000
Ti	25.68310776	7.71594000	1.99115000
Ti	14.24749588	7.71594000	1.99115000
Ti	29.49498776	7.71594000	1.99115000
Ti	18.05936588	7.71594000	1.99115000
O	6.62374588	8.81302000	0.37332000
O	21.87123776	8.81302000	0.37332000
O	8.52968588	3.56949000	0.37332000
O	23.77717776	3.56949000	0.37332000
O	8.52968588	0.60134000	1.26110000
O	23.77717776	0.60134000	1.26110000
O	6.62374588	5.84486000	1.26111000
O	21.87123776	5.84486000	1.26111000
O	6.62374588	2.06812000	1.83340000
O	21.87123776	2.06812000	1.83340000
O	8.52968588	7.31164000	1.83340000
O	23.77717776	7.31164000	1.83340000
O	8.52968588	4.34349000	2.72118000
O	23.77717776	4.34349000	2.72118000
O	6.62374588	9.58701000	2.72118000
O	21.87123776	9.58701000	2.72118000
O	10.43561588	8.81302000	0.37332000
O	25.68310776	8.81302000	0.37332000
O	14.24749588	8.81302000	0.37332000
O	29.49498776	8.81302000	0.37332000
O	18.05936588	8.81302000	0.37332000
O	12.34155588	3.56949000	0.37332000
O	27.58904776	3.56949000	0.37332000
O	16.15343588	3.56949000	0.37332000
O	19.96530588	3.56949000	0.37332000
O	12.34155588	0.60134000	1.26110000
O	27.58904776	0.60134000	1.26110000
O	16.15343588	0.60134000	1.26110000
O	19.96530588	0.60134000	1.26110000
O	10.43561588	5.84486000	1.26111000
O	25.68310776	5.84486000	1.26111000
O	14.24749588	5.84486000	1.26111000
O	29.49498776	5.84486000	1.26111000
O	18.05936588	5.84486000	1.26111000
O	10.43561588	2.06812000	1.83340000
O	25.68310776	2.06812000	1.83340000
O	14.24749588	2.06812000	1.83340000
O	29.49498776	2.06812000	1.83340000
O	18.05936588	2.06812000	1.83340000
O	12.34155588	7.31164000	1.83340000
O	27.58904776	7.31164000	1.83340000
O	16.15343588	7.31164000	1.83340000
O	19.96530588	7.31164000	1.83340000
O	12.34155588	4.34349000	2.72118000
O	27.58904776	4.34349000	2.72118000
O	16.15343588	4.34349000	2.72118000
O	19.96530588	4.34349000	2.72118000
O	10.43561588	9.58701000	2.72118000
O	25.68310776	9.58701000	2.72118000
O	14.24749588	9.58701000	2.72118000
O	29.49498776	9.58701000	2.72118000
O	18.05936588	9.58701000	2.72118000
Ti	2.81187400	10.68408607	1.10336000
Ti	2.81187400	21.17113214	1.10336000
Ti	0.90594400	15.92761607	1.10336000
Ti	0.90594400	26.41466214	1.10336000
Ti	4.71781400	15.92761607	1.10336000
Ti	4.71781400	26.41466214	1.10336000
Ti	0.90594400	12.95945607	1.99114000
Ti	0.90594400	23.44650214	1.99114000
Ti	4.71781400	12.95945607	1.99114000
Ti	4.71781400	23.44650214	1.99114000
Ti	2.81187400	18.20298607	1.99115000
Ti	2.81187400	28.69003214	1.99115000
O	2.81187400	19.30006607	0.37332000
O	2.81187400	29.78711214	0.37332000
O	0.90594400	14.05653607	0.37332000
O	0.90594400	24.54358214	0.37332000
O	4.71781400	14.05653607	0.37332000
O	4.71781400	24.54358214	0.37332000
O	0.90594400	11.08838607	1.26110000
O	0.90594400	21.57543214	1.26110000
O	4.71781400	11.08838607	1.26110000
O	4.71781400	21.57543214	1.26110000
O	2.81187400	16.33190607	1.26111000
O	2.81187400	26.81895214	1.26111000
O	2.81187400	12.55516607	1.83340000
O	2.81187400	23.04221214	1.83340000
O	0.90594400	17.79868607	1.83340000
O	0.90594400	28.28573214	1.83340000
O	4.71781400	17.79868607	1.83340000
O	4.71781400	28.28573214	1.83340000
O	0.90594400	14.83053607	2.72118000
O	0.90594400	25.31758214	2.72118000
O	4.71781400	14.83053607	2.72118000
O	4.71781400	25.31758214	2.72118000
O	2.81187400	20.07405607	2.72118000
O	2.81187400	30.56110214	2.72118000
Ti	6.62374588	10.68408607	1.10336000
Ti	6.62374588	21.17113214	1.10336000
Ti	21.87123776	10.68408607	1.10336000
Ti	21.87123776	21.17113214	1.10336000
Ti	8.52968588	15.92761607	1.10336000
Ti	8.52968588	26.41466214	1.10336000
Ti	23.77717776	15.92761607	1.10336000
Ti	23.77717776	26.41466214	1.10336000
Ti	8.52968588	12.95945607	1.99114000
Ti	8.52968588	23.44650214	1.99114000
Ti	23.77717776	12.95945607	1.99114000
Ti	23.77717776	23.44650214	1.99114000
Ti	6.62374588	18.20298607	1.99115000
Ti	6.62374588	28.69003214	1.99115000
Ti	21.87123776	18.20298607	1.99115000
Ti	21.87123776	28.69003214	1.99115000
Ti	10.43561588	10.68408607	1.10336000
Ti	10.43561588	21.17113214	1.10336000
Ti	25.68310776	10.68408607	1.10336000
Ti	25.68310776	21.17113214	1.10336000
Ti	14.24749588	10.68408607	1.10336000
Ti	14.24749588	21.17113214	1.10336000
Ti	29.49498776	10.68408607	1.10336000
Ti	29.49498776	21.17113214	1.10336000
Ti	18.05936588	10.68408607	1.10336000
Ti	18.05936588	21.17113214	1.10336000
Ti	12.34155588	15.92761607	1.10336000
Ti	12.34155588	26.41466214	1.10336000
Ti	27.58904776	15.92761607	1.10336000
Ti	27.58904776	26.41466214	1.10336000
Ti	16.15343588	15.92761607	1.10336000
Ti	16.15343588	26.41466214	1.10336000
Ti	19.96530588	15.92761607	1.10336000
Ti	19.96530588	26.41466214	1.10336000
Ti	12.34155588	12.95945607	1.99114000
Ti	12.34155588	23.44650214	1.99114000
Ti	27.58904776	12.95945607	1.99114000
Ti	27.58904776	23.44650214	1.99114000
Ti	16.15343588	12.95945607	1.99114000
Ti	16.15343588	23.44650214	1.99114000
Ti	19.96530588	12.95945607	1.99114000
Ti	19.96530588	23.44650214	1.99114000
Ti	10.43561588	18.20298607	1.99115000
Ti	10.43561588	28.69003214	1.99115000
Ti	25.68310776	18.20298607	1.99115000
Ti	25.68310776	28.69003214	1.99115000
Ti	14.24749588	18.20298607	1.99115000
Ti	14.24749588	28.69003214	1.99115000
Ti	29.49498776	18.20298607	1.99115000
Ti	29.49498776	28.69003214	1.99115000
Ti	18.05936588	18.20298607	1.99115000
Ti	18.05936588	28.69003214	1.99115000
O	6.62374588	19.30006607	0.37332000
O	6.62374588	29.78711214	0.37332000
O	21.87123776	19.30006607	0.37332000
O	21.87123776	29.78711214	0.37332000
O	8.52968588	14.05653607	0.37332000
O	8.52968588	24.54358214	0.37332000
O	23.77717776	14.05653607	0.37332000
O	23.77717776	24.54358214	0.37332000
O	8.52968588	11.08838607	1.26110000
O	8.52968588	21.57543214	1.26110000
O	23.77717776	11.08838607	1.26110000
O	23.77717776	21.57543214	1.26110000
O	6.62374588	16.33190607	1.26111000
O	6.62374588	26.81895214	1.26111000
O	21.87123776	16.33190607	1.26111000
O	21.87123776	26.81895214	1.26111000
O	6.62374588	12.55516607	1.83340000
O	6.62374588	23.04221214	1.83340000
O	21.87123776	12.55516607	1.83340000
O	21.87123776	23.04221214	1.83340000
O	8.52968588	17.79868607	1.83340000
O	8.52968588	28.28573214	1.83340000
O	23.77717776	17.79868607	1.83340000
O	23.77717776	28.28573214	1.83340000
O	8.52968588	14.83053607	2.72118000
O	8.52968588	25.31758214	2.72118000
O	23.77717776	14.83053607	2.72118000
O	23.77717776	25.31758214	2.72118000
O	6.62374588	20.07405607	2.72118000
O	6.62374588	30.56110214	2.72118000
O	21.87123776	20.07405607	2.72118000
O	21.87123776	30.56110214	2.72118000
O	10.43561588	19.30006607	0.37332000
O	10.43561588	29.78711214	0.37332000
O	25.68310776	19.30006607	0.37332000
O	25.68310776	29.78711214	0.37332000
O	14.24749588	19.30006607	0.37332000
O	14.24749588	29.78711214	0.37332000
O	29.49498776	19.30006607	0.37332000
O	29.49498776	29.78711214	0.37332000
O	18.05936588	19.30006607	0.37332000
O	18.05936588	29.78711214	0.37332000
O	12.34155588	14.05653607	0.37332000
O	12.34155588	24.54358214	0.37332000
O	27.58904776	14.05653607	0.37332000
O	27.58904776	24.54358214	0.37332000
O	16.15343588	14.05653607	0.37332000
O	16.15343588	24.54358214	0.37332000
O	19.96530588	14.05653607	0.37332000
O	19.96530588	24.54358214	0.37332000
O	12.34155588	11.08838607	1.26110000
O	12.34155588	21.57543214	1.26110000
O	27.58904776	11.08838607	1.26110000
O	27.58904776	21.57543214	1.26110000
O	16.15343588	11.08838607	1.26110000
O	16.15343588	21.57543214	1.26110000
O	19.96530588	11.08838607	1.26110000
O	19.96530588	21.57543214	1.26110000
O	10.43561588	16.33190607	1.26111000
O	10.43561588	26.81895214	1.26111000
O	25.68310776	16.33190607	1.26111000
O	25.68310776	26.81895214	1.26111000
O	14.24749588	16.33190607	1.26111000
O	14.24749588	26.81895214	1.26111000
O	29.49498776	16.33190607	1.26111000
O	29.49498776	26.81895214	1.26111000
O	18.05936588	16.33190607	1.26111000
O	18.05936588	26.81895214	1.26111000
O	10.43561588	12.55516607	1.83340000
O	10.43561588	23.04221214	1.83340000
O	25.68310776	12.55516607	1.83340000
O	25.68310776	23.04221214	1.83340000
O	14.24749588	12.55516607	1.83340000
O	14.24749588	23.04221214	1.83340000
O	29.49498776	12.55516607	1.83340000
O	29.49498776	23.04221214	1.83340000
O	18.05936588	12.55516607	1.83340000
O	18.05936588	23.04221214	1.83340000
O	12.34155588	17.79868607	1.83340000
O	12.34155588	28.28573214	1.83340000
O	27.58904776	17.79868607	1.83340000
O	27.58904776	28.28573214	1.83340000
O	16.15343588	17.79868607	1.83340000
O	16.15343588	28.28573214	1.83340000
O	19.96530588	17.79868607	1.83340000
O	19.96530588	28.28573214	1.83340000
O	12.34155588	14.83053607	2.72118000
O	12.34155588	25.31758214	2.72118000
O	27.58904776	14.83053607	2.72118000
O	27.58904776	25.31758214	2.72118000
O	16.15343588	14.83053607	2.72118000
O	16.15343588	25.31758214	2.72118000
O	19.96530588	14.83053607	2.72118000
O	19.96530588	25.31758214	2.72118000
O	10.43561588	20.07405607	2.72118000
O	10.43561588	30.56110214	2.72118000
O	25.68310776	20.07405607	2.72118000
O	25.68310776	30.56110214	2.72118000
O	14.24749588	20.07405607	2.72118000
O	14.24749588	30.56110214	2.72118000
O	29.49498776	20.07405607	2.72118000
O	29.49498776	30.56110214	2.72118000
O	18.05936588	20.07405607	2.72118000
O	18.05936588	30.56110214	2.72118000
Ti	6.55806227	9.27923712	4.79861823
Ti	6.63575685	6.40506665	5.55303634
Ti	2.77703322	9.20955779	4.69994936
Ti	0.99586135	4.04664408	4.77286152
Ti	4.78646676	3.99166953	4.68404346
Ti	0.91246958	1.05981488	5.49101906
Ti	4.79406598	1.10103003	5.46885722
Ti	2.83885189	6.31581801	5.53034538
O	6.53585718	7.39991641	3.91851460
O	6.63335225	4.47349384	4.85560192
O	6.67225863	0.49114326	5.70751934
O	6.67907497	8.11012311	6.29580869
O	2.87630274	7.22218785	3.93621647
O	0.92682936	2.16705819	3.99770372
O	4.79309874	2.15211711	3.98587730
O	0.90196102	9.44603197	4.86241084
O	4.72429878	9.75889232	4.69520547
O	2.85008140	4.42486524	4.96533917
O	2.90241917	0.67846991	5.71298107
O	0.95390564	5.78637989	5.76386652
O	4.74355860	5.91928843	5.90231618
O	0.93319689	2.84173360	6.36874134
O	4.78202881	2.82798481	6.30198359
O	2.75785062	8.10378434	6.41927058
Ti	21.88976549	9.14641169	4.81458320
Ti	8.57756878	4.03738050	4.80195419
Ti	23.81010427	3.85721025	4.95033227
Ti	8.55047659	1.09793388	5.47655848
Ti	23.78169446	0.97342275	5.58524364
Ti	21.95740846	6.21879680	5.40068281
Ti	10.32967580	9.37930411	4.89011032
Ti	25.71199133	9.05436621	4.70255004
Ti	14.26513702	9.24908221	5.04068040
Ti	29.45117010	9.21855314	4.65775090
Ti	18.06440850	9.13789762	4.76101756
Ti	12.34666342	3.98774040	4.80203198
Ti	27.67808106	3.86481589	4.74038540
Ti	16.18759493	4.08994530	4.71930057
Ti	20.03462249	3.90798688	4.73956259
Ti	12.50206520	1.13287747	5.67866387
Ti	27.55735319	1.08905022	5.38147446
Ti	16.03827305	1.19578909	5.67445185
Ti	19.96096376	1.00280030	5.56194965
Ti	10.43615649	6.36935552	5.41326420
Ti	25.77802952	6.16257587	5.51558796
Ti	14.29801947	6.29365240	5.54169435
Ti	29.40943099	6.30793309	5.53921604
Ti	18.17605567	6.21196997	5.45073921
O	21.95387981	7.39573400	3.91224616
O	8.51592677	2.13410908	3.95666282
O	23.91251394	2.04453475	3.96844270
O	8.40240106	9.80623227	4.82560167
O	23.73908435	9.58999350	4.74622974
O	21.97758735	4.35687338	4.78087475
O	21.81860537	0.44382023	5.75943532
O	8.49702261	5.97436734	5.80202931
O	23.84622699	5.69773090	5.81768791
O	8.45682459	2.85321219	6.40837185
O	23.69610525	2.69265286	6.42850096
O	21.99428715	7.93741025	6.41145444
O	10.29916795	7.35434943	3.88342101
O	25.58832129	7.27804950	3.95932271
O	14.20175746	7.38378467	4.01665430
O	29.35864028	7.41608493	3.96366303
O	18.10125587	7.30768359	3.94966716
O	12.43406453	2.07103225	4.02812982
O	27.50629561	2.07441087	3.83837516
O	16.10137802	2.09721186	3.99545303
O	19.93451744	2.07176136	3.93502038
O	12.32246700	9.68124476	4.82085693
O	27.50332637	9.66812934	4.87307863
O	16.19575976	9.58487591	4.73083697
O	19.94449844	9.51882586	4.85747116
O	10.49510753	4.45624711	4.90169699
O	25.74477519	4.26841964	4.96159537
O	14.25496668	4.55424838	4.73202534
O	29.49170880	4.39051788	4.88875617
O	18.12892156	4.27434795	4.82300190
O	10.50642276	0.62101119	5.89129413
O	25.66578165	0.54407601	5.60013472
O	14.29425722	1.06509666	6.31889925
O	29.48506666	0.58308003	5.79715971
O	17.97934661	0.53135516	5.98962014
O	12.38981062	5.82039508	5.82646120
O	27.64804345	5.67908689	5.99752054
O	16.23421166	5.83153954	5.72409072
O	20.10998710	5.68710278	5.66903314
O	12.35851003	3.00991505	6.49756165
O	27.73713994	2.68185032	6.30900822
O	16.23899600	3.03763763	6.37281440
O	20.19969731	2.80097852	6.42013412
O	10.33962944	8.05258453	6.35256068
O	25.78818849	7.95397052	6.44229904
O	14.35377884	7.99475286	6.54213991
O	29.28326531	8.08467340	6.44112927
O	18.16080531	7.99131819	6.39693631
Ti	6.62695453	19.64954443	4.83429296
Ti	6.78410774	30.06313536	4.83702318
Ti	6.49641682	16.77355126	5.44803530
Ti	6.62066715	27.15480516	5.48403038
Ti	2.83400743	19.77293524	4.68588355
Ti	2.93171445	30.18056509	4.86600673
Ti	0.94732809	14.31069611	4.75892799
Ti	0.85124949	25.04738339	4.87090936
Ti	4.64084435	14.52923042	4.82288783
Ti	4.81417177	24.93791718	4.73848494
Ti	0.84988946	11.38991583	5.47446699
Ti	0.88766343	22.07159849	5.54533683
Ti	4.63554890	11.59808085	5.44314880
Ti	4.67125828	22.07795173	5.46517934
Ti	2.81011703	16.95277805	5.70159158
Ti	2.84554950	27.21371105	5.47904725
O	6.46368071	17.87014953	3.87004152
O	6.72404034	28.29915782	3.95138285
O	6.61862495	14.98606823	4.78744336
O	6.68561938	25.30576534	4.81224799
O	6.46233271	11.13719093	5.82127374
O	6.66498681	21.63838023	5.68370426
O	6.54199076	18.42476140	6.34784425
O	6.59197921	28.84336479	6.41484347
O	2.87130440	17.89452679	3.97910029
O	2.86078987	28.39054173	3.98651032
O	1.00886901	12.47259915	3.90849980
O	0.88661377	23.19611061	3.97554878
O	4.46028924	12.70668355	3.94645449
O	4.86057692	23.07863742	3.87706997
O	0.90145253	20.17389254	4.98486694
O	1.09426532	30.61516965	4.87523162
O	4.77614442	20.15904521	4.70938347
O	4.78506426	30.69844031	4.82775332
O	2.72307923	15.07183435	4.96574022
O	2.82805903	25.27423945	4.67866277
O	2.77182543	10.96815969	5.64807565
O	2.82731021	21.72989977	5.68682179
O	0.93701426	16.76010886	6.27542543
O	0.98291641	26.90707747	5.75262105
O	4.63150603	16.36221109	6.04751862
O	4.72885370	26.59973628	5.83017520
O	0.96367892	13.17792244	6.39846454
O	0.82178499	23.95847884	6.35070627
O	4.69840126	13.32747475	6.21582329
O	4.77726497	23.76470702	6.33562539
O	2.80687030	18.83754127	6.40775240
O	3.11624678	28.98357252	6.45157755
Ti	21.81346625	19.74730058	4.83039263
Ti	21.87601919	30.11365626	4.72811454
Ti	8.50259811	14.50169275	4.82178145
Ti	8.62007421	24.86252787	4.89176333
Ti	23.73580962	14.47483887	4.70793890
Ti	23.74858338	24.97991214	4.75296995
Ti	8.43109054	11.62465262	5.53255979
Ti	8.59377684	22.02134069	5.45532273
Ti	23.75925148	11.56447434	5.62115397
Ti	23.66609626	22.19639528	5.50162936
Ti	21.92681696	16.81805016	5.54380321
Ti	21.78285616	27.24169230	5.46824468
Ti	10.47462036	19.66684489	4.77189369
Ti	10.46820651	30.19971969	4.83150655
Ti	25.68958120	19.71894376	4.69394461
Ti	25.69250934	30.18547488	4.68058287
Ti	14.31867511	19.71021529	4.62889742
Ti	14.28022656	30.05853871	4.72294192
Ti	29.41421743	19.72940969	4.75097192
Ti	29.57077371	30.26093036	4.73963325
Ti	18.07634974	19.73449725	4.69067650
Ti	17.99346957	30.15803147	4.83241993
Ti	12.41153572	14.45625731	4.65038612
Ti	12.39581103	24.91765993	4.78446074
Ti	27.58579219	14.45441886	4.75794823
Ti	27.61825657	25.07365468	4.72868436
Ti	16.09277386	14.46518637	4.73482337
Ti	16.11869582	24.94139009	4.81781587
Ti	20.03055201	14.39777788	4.68136150
Ti	19.88102101	24.92773967	4.73882347
Ti	12.34980992	11.56437466	5.50632748
Ti	12.43992703	21.98283282	5.45183541
Ti	27.55362461	11.54561325	5.53783109
Ti	27.52715317	22.20524899	5.57116775
Ti	16.26459283	11.56752903	5.50578331
Ti	16.21203876	22.06244937	5.49945917
Ti	20.05515092	11.50530559	5.34986647
Ti	19.89130399	22.00711015	5.44555649
Ti	10.36788193	16.78620652	5.47582866
Ti	10.41575869	27.27847101	5.56694061
Ti	25.69808233	16.81233128	5.53182554
Ti	25.69405563	27.21592710	5.39287845
Ti	14.20600616	16.70298172	5.81204969
Ti	14.29798027	27.27277392	5.55990066
Ti	29.70923651	16.83096364	5.44115141
Ti	29.55058285	27.34090947	5.57403376
Ti	18.21594747	16.73663752	5.45665039
Ti	18.04256209	27.26329676	5.58020798
O	21.97549674	17.93619087	3.98563499
O	21.88720737	28.28267370	3.93675292
O	8.58089720	12.67918903	3.96893129
O	8.41403954	23.07108463	3.96059176
O	23.84664722	12.54342317	4.03979551
O	23.73756186	23.18990990	3.89359311
O	8.48777839	20.11732322	4.81080848
O	8.61335494	30.52697044	4.86073539
O	23.71707624	20.22907911	4.73800136
O	23.72818089	30.63043452	4.78329388
O	21.88777020	15.07021540	4.69730738
O	21.73657394	25.42312848	4.61983675
O	21.96079519	10.99047353	5.94854961
O	21.83281562	21.62045841	5.81883351
O	8.44389826	16.44361912	5.77966136
O	8.57532654	26.79675721	5.81709212
O	23.76976364	16.34116924	5.99053738
O	23.74425141	26.80621120	5.62778374
O	8.62915480	13.37303821	6.41286402
O	8.53965503	23.75662943	6.41351756
O	23.50757523	13.32248908	6.39146336
O	23.70405797	23.89316748	6.36363639
O	21.87706955	18.70683064	6.43577325
O	21.89148135	29.00743910	6.44276493
O	10.38851407	17.69579570	3.88797215
O	10.42594425	28.46324816	4.02009794
O	25.53430017	17.86265139	3.97502321
O	25.69534766	28.28452101	3.82559793
O	14.26500645	17.83726391	3.92881957
O	14.30353247	28.33021837	3.96912913
O	29.52222229	17.83746228	3.86943283
O	29.59128439	28.39290996	3.97386347
O	18.26090164	17.82950263	3.90799287
O	18.02906576	28.34827270	3.97418961
O	12.44172974	12.59501120	3.92518739
O	12.51559913	23.05344622	3.89570248
O	27.59856228	12.53979083	3.86597009
O	27.77229911	23.17378746	3.95966901
O	16.21437113	12.64069657	3.94288675
O	16.13506302	23.14104410	3.94227171
O	20.04907062	12.59303159	3.87586289
O	20.15710670	23.09672751	3.95872698
O	12.44981354	20.09658581	4.73612016
O	12.42635961	30.81044983	4.86606192
O	27.55555368	20.25662716	4.78172942
O	27.62937719	30.64712735	4.67737960
O	16.15595360	20.13596038	4.61861528
O	16.09035314	30.66574712	5.06469529
O	19.96211358	20.10897238	4.69666849
O	19.87173040	30.65461260	4.71289114
O	10.41299807	14.76337003	4.82054555
O	10.53426987	25.40179652	4.75684762
O	25.65432460	14.94370298	4.83181072
O	25.69463444	25.27324505	4.87450977
O	14.25820823	15.06060374	4.58199648
O	14.27193392	25.40087655	4.77925965
O	29.66033069	14.97024622	4.93722274
O	29.50560525	25.52555980	4.95530535
O	18.00833228	14.81898353	4.78043744
O	18.05161598	25.41194993	4.73874301
O	10.38849815	11.17135785	5.75313551
O	10.54654683	21.53278357	5.71188126
O	25.56810838	11.04245906	5.67627341
O	25.64058156	21.76347906	5.69697503
O	14.32858749	11.00523125	5.78190318
O	14.33669392	21.41174727	5.62201726
O	29.50779065	11.07925099	5.81357792
O	29.47431090	21.61551271	5.90106690
O	18.13064808	11.08971668	5.69826211
O	18.04446585	21.51620348	5.84374164
O	12.27611208	16.25003287	5.52837151
O	12.44566956	26.65846664	5.75426173
O	27.74394130	16.37976458	5.75234432
O	27.61350661	26.94895664	5.74023584
O	16.22271049	16.19503205	5.76214257
O	16.15728230	26.72649375	5.97266034
O	20.06159831	16.23388774	5.86536301
O	19.86012020	26.89058947	5.63425161
O	12.43561232	13.37889609	6.33136236
O	12.60091592	23.71394320	6.31498978
O	27.64937863	13.36022662	6.25670806
O	27.63394549	23.96195381	6.35118792
O	16.18460460	13.26333989	6.34447737
O	16.22228593	23.85594084	6.41266758
O	20.07810472	13.15378282	6.26249553
O	19.70421181	23.73540895	6.24788589
O	10.37962336	18.51098635	6.41988185
O	10.58557236	28.95128900	6.43548931
O	25.53964872	18.69764844	6.36661035
O	25.62883314	29.01030630	6.23035630
O	14.33004046	18.54668983	6.34587539
O	14.04118229	29.11835313	6.39443672
O	29.49411305	18.60493768	6.33106597
O	29.52949164	29.19214864	6.43407530
O	18.03459725	18.46890078	6.37465100
O	18.10224352	28.97163353	6.51258431
H	14.84958314	13.89288532	7.86584660
H	13.79496087	14.55698386	11.12088306
H	14.63567749	18.28221447	9.03167876
O	14.01815538	16.14701035	7.53898660
O	14.79371668	14.32608597	8.74955212
C	14.39755496	15.59002893	8.67997491
C	14.28648626	16.29881939	9.95945483
C	14.09971925	15.61061765	11.13753029
C	14.43996880	17.72549656	9.97133283
N	12.85737726	19.49983710	15.37218579
N	15.45353508	22.15201999	17.06848458
N	15.68404251	20.08716312	15.08195949
N	12.66910662	21.86710406	17.36188079
C	21.35971017	20.83849870	16.29720439
C	14.45734161	25.32052062	21.72059702
C	7.29599160	19.86271783	16.17849281
C	19.03389988	21.53559001	15.96291117
C	13.85232918	24.69114570	19.50017030
C	9.54957493	19.78082415	17.01648112
C	20.87543438	22.75003149	14.93841723
C	13.51281226	26.98625439	20.22724530
C	7.75477973	18.62322227	18.24497405
C	14.34903993	18.54213409	13.65371405
C	17.59531579	21.39041684	16.07828557
C	13.89811363	23.67603347	18.43596239
C	10.94406442	20.10126299	16.85312295
C	15.49901685	19.31079900	13.99115985
C	17.02901674	20.36207035	15.23089280
C	12.71591394	22.96945488	18.17329670
C	11.45579549	21.29343739	17.45722513
C	16.76926468	18.88964176	13.51071046
C	17.75938253	19.62504343	14.21107179
C	11.43606937	23.13738901	18.78581039
C	10.64062922	22.09245938	18.34793850
C	13.13087607	18.53402882	14.44722627
C	16.81776439	22.27859601	16.82981188
C	15.15526220	23.24024424	17.92265796
C	11.64804624	19.21791188	16.01779755
C	11.95614340	17.67392466	14.37555106
C	17.38797406	23.31694887	17.54889459
C	16.37898681	23.98153566	18.23430309
C	11.05764558	18.04003566	15.38197692
H	11.78093301	16.81231057	13.71048712
H	18.43315930	23.54877514	17.73925006
H	16.38881001	24.76483061	18.99564339
H	10.08538252	17.50097422	15.58195526
H	16.88572662	18.18531153	12.69340447
H	18.82947358	19.65148290	14.02339954
H	11.13650283	23.83672220	19.59504952
H	9.62603151	21.85176115	18.63686658
H	21.26309247	23.61355314	14.28495740
H	13.18710543	28.06577249	20.04903371
H	7.31187488	18.06712302	19.12456382
H	22.11061361	20.30069789	16.91602457
H	14.90313056	25.05224448	22.75481996
H	6.53289574	20.10129054	15.40247761
H	15.01564638	20.35658691	15.78567924
H	13.43898238	21.49599093	16.78223430
C	23.32444237	21.92677650	15.35825682
H	23.75113707	20.96414981	14.99727051
H	23.76378694	22.10891724	16.33650538
H	23.72357779	22.73879171	14.70634234
C	19.59217330	19.47738908	17.33702187
H	18.54330283	19.28785821	17.10671691
H	19.69867025	19.69036637	18.40408357
H	20.11004889	18.49615930	17.13363370
C	18.69060616	23.79690934	14.81404942
H	19.24906646	24.53449242	14.18272504
H	18.42308313	24.31063995	15.71445685
H	17.77947072	23.53376253	14.28023992
C	10.10245581	18.68633718	19.21081944
H	10.92325837	18.03188934	18.89150290
H	9.57667154	18.27880399	20.05312542
H	10.60370474	19.65456395	19.48635040
C	8.94672873	21.14853762	14.89817373
H	9.58855880	21.98126546	15.31227008
H	8.07357042	21.58752249	14.38040142
H	9.51509363	20.65887710	14.06574898
C	5.37742213	18.62973000	17.24949305
H	5.26904094	17.65005526	16.78499856
H	4.78006987	19.43605228	16.73960463
H	5.04212001	18.46044271	18.23741935
C	12.84675210	26.31672759	17.94822790
H	12.09485382	25.60255760	17.53380891
H	13.62792698	26.45159572	17.16604095
H	12.36310629	27.25434129	18.08663937
C	14.73041869	22.90337494	21.11359372
H	13.87586118	22.23959151	21.40468720
H	15.43842236	22.71596212	21.93146235
H	15.16851176	22.51077258	20.21124789
C	14.29823078	27.54754995	22.65139094
H	13.58514172	27.31726075	23.45458134
H	14.27583278	28.62854402	22.40915355
H	15.29355128	27.34099772	23.07530809
C	21.84396699	21.85005104	15.49152821
C	19.97360872	20.61821403	16.45880967
C	19.50320844	22.66876106	15.23118395
C	13.38339190	26.00493604	19.25072323
C	14.32348387	24.32004451	20.76770044
C	14.09090236	26.65325980	21.46156106
C	9.10698145	18.98220035	18.13160778
C	8.64477352	20.18803913	16.03014151
C	6.86846658	19.04788509	17.22191930
H	13.93086778	15.75797684	13.25524630
H	14.65472194	19.56698797	11.05221239
C	14.32145794	17.71786328	12.36668897
C	14.04377689	16.34973780	12.32308924
C	14.44177781	18.47612905	11.17173077

Ti O H C N 0
6-31G*
****

