%chk=f00017364.chk
%mem=24GB
%nproc=12
#p b3lyp/6-31G*

title

0 1
Ti	2.81187400	0.19704000	1.10336000
Ti	0.90594400	5.44057000	1.10336000
Ti	4.71781400	5.44057000	1.10336000
Ti	0.90594400	2.47241000	1.99114000
Ti	4.71781400	2.47241000	1.99114000
Ti	2.81187400	7.71594000	1.99115000
O	2.81187400	8.81302000	0.37332000
O	0.90594400	3.56949000	0.37332000
O	4.71781400	3.56949000	0.37332000
O	0.90594400	0.60134000	1.26110000
O	4.71781400	0.60134000	1.26110000
O	2.81187400	5.84486000	1.26111000
O	2.81187400	2.06812000	1.83340000
O	0.90594400	7.31164000	1.83340000
O	4.71781400	7.31164000	1.83340000
O	0.90594400	4.34349000	2.72118000
O	4.71781400	4.34349000	2.72118000
O	2.81187400	9.58701000	2.72118000
Ti	6.62374588	0.19704000	1.10336000
Ti	21.87123776	0.19704000	1.10336000
Ti	8.52968588	5.44057000	1.10336000
Ti	23.77717776	5.44057000	1.10336000
Ti	8.52968588	2.47241000	1.99114000
Ti	23.77717776	2.47241000	1.99114000
Ti	6.62374588	7.71594000	1.99115000
Ti	21.87123776	7.71594000	1.99115000
Ti	10.43561588	0.19704000	1.10336000
Ti	25.68310776	0.19704000	1.10336000
Ti	14.24749588	0.19704000	1.10336000
Ti	29.49498776	0.19704000	1.10336000
Ti	18.05936588	0.19704000	1.10336000
Ti	12.34155588	5.44057000	1.10336000
Ti	27.58904776	5.44057000	1.10336000
Ti	16.15343588	5.44057000	1.10336000
Ti	19.96530588	5.44057000	1.10336000
Ti	12.34155588	2.47241000	1.99114000
Ti	27.58904776	2.47241000	1.99114000
Ti	16.15343588	2.47241000	1.99114000
Ti	19.96530588	2.47241000	1.99114000
Ti	10.43561588	7.71594000	1.99115000
Ti	25.68310776	7.71594000	1.99115000
Ti	14.24749588	7.71594000	1.99115000
Ti	29.49498776	7.71594000	1.99115000
Ti	18.05936588	7.71594000	1.99115000
O	6.62374588	8.81302000	0.37332000
O	21.87123776	8.81302000	0.37332000
O	8.52968588	3.56949000	0.37332000
O	23.77717776	3.56949000	0.37332000
O	8.52968588	0.60134000	1.26110000
O	23.77717776	0.60134000	1.26110000
O	6.62374588	5.84486000	1.26111000
O	21.87123776	5.84486000	1.26111000
O	6.62374588	2.06812000	1.83340000
O	21.87123776	2.06812000	1.83340000
O	8.52968588	7.31164000	1.83340000
O	23.77717776	7.31164000	1.83340000
O	8.52968588	4.34349000	2.72118000
O	23.77717776	4.34349000	2.72118000
O	6.62374588	9.58701000	2.72118000
O	21.87123776	9.58701000	2.72118000
O	10.43561588	8.81302000	0.37332000
O	25.68310776	8.81302000	0.37332000
O	14.24749588	8.81302000	0.37332000
O	29.49498776	8.81302000	0.37332000
O	18.05936588	8.81302000	0.37332000
O	12.34155588	3.56949000	0.37332000
O	27.58904776	3.56949000	0.37332000
O	16.15343588	3.56949000	0.37332000
O	19.96530588	3.56949000	0.37332000
O	12.34155588	0.60134000	1.26110000
O	27.58904776	0.60134000	1.26110000
O	16.15343588	0.60134000	1.26110000
O	19.96530588	0.60134000	1.26110000
O	10.43561588	5.84486000	1.26111000
O	25.68310776	5.84486000	1.26111000
O	14.24749588	5.84486000	1.26111000
O	29.49498776	5.84486000	1.26111000
O	18.05936588	5.84486000	1.26111000
O	10.43561588	2.06812000	1.83340000
O	25.68310776	2.06812000	1.83340000
O	14.24749588	2.06812000	1.83340000
O	29.49498776	2.06812000	1.83340000
O	18.05936588	2.06812000	1.83340000
O	12.34155588	7.31164000	1.83340000
O	27.58904776	7.31164000	1.83340000
O	16.15343588	7.31164000	1.83340000
O	19.96530588	7.31164000	1.83340000
O	12.34155588	4.34349000	2.72118000
O	27.58904776	4.34349000	2.72118000
O	16.15343588	4.34349000	2.72118000
O	19.96530588	4.34349000	2.72118000
O	10.43561588	9.58701000	2.72118000
O	25.68310776	9.58701000	2.72118000
O	14.24749588	9.58701000	2.72118000
O	29.49498776	9.58701000	2.72118000
O	18.05936588	9.58701000	2.72118000
Ti	2.81187400	10.68408607	1.10336000
Ti	2.81187400	21.17113214	1.10336000
Ti	0.90594400	15.92761607	1.10336000
Ti	0.90594400	26.41466214	1.10336000
Ti	4.71781400	15.92761607	1.10336000
Ti	4.71781400	26.41466214	1.10336000
Ti	0.90594400	12.95945607	1.99114000
Ti	0.90594400	23.44650214	1.99114000
Ti	4.71781400	12.95945607	1.99114000
Ti	4.71781400	23.44650214	1.99114000
Ti	2.81187400	18.20298607	1.99115000
Ti	2.81187400	28.69003214	1.99115000
O	2.81187400	19.30006607	0.37332000
O	2.81187400	29.78711214	0.37332000
O	0.90594400	14.05653607	0.37332000
O	0.90594400	24.54358214	0.37332000
O	4.71781400	14.05653607	0.37332000
O	4.71781400	24.54358214	0.37332000
O	0.90594400	11.08838607	1.26110000
O	0.90594400	21.57543214	1.26110000
O	4.71781400	11.08838607	1.26110000
O	4.71781400	21.57543214	1.26110000
O	2.81187400	16.33190607	1.26111000
O	2.81187400	26.81895214	1.26111000
O	2.81187400	12.55516607	1.83340000
O	2.81187400	23.04221214	1.83340000
O	0.90594400	17.79868607	1.83340000
O	0.90594400	28.28573214	1.83340000
O	4.71781400	17.79868607	1.83340000
O	4.71781400	28.28573214	1.83340000
O	0.90594400	14.83053607	2.72118000
O	0.90594400	25.31758214	2.72118000
O	4.71781400	14.83053607	2.72118000
O	4.71781400	25.31758214	2.72118000
O	2.81187400	20.07405607	2.72118000
O	2.81187400	30.56110214	2.72118000
Ti	6.62374588	10.68408607	1.10336000
Ti	6.62374588	21.17113214	1.10336000
Ti	21.87123776	10.68408607	1.10336000
Ti	21.87123776	21.17113214	1.10336000
Ti	8.52968588	15.92761607	1.10336000
Ti	8.52968588	26.41466214	1.10336000
Ti	23.77717776	15.92761607	1.10336000
Ti	23.77717776	26.41466214	1.10336000
Ti	8.52968588	12.95945607	1.99114000
Ti	8.52968588	23.44650214	1.99114000
Ti	23.77717776	12.95945607	1.99114000
Ti	23.77717776	23.44650214	1.99114000
Ti	6.62374588	18.20298607	1.99115000
Ti	6.62374588	28.69003214	1.99115000
Ti	21.87123776	18.20298607	1.99115000
Ti	21.87123776	28.69003214	1.99115000
Ti	10.43561588	10.68408607	1.10336000
Ti	10.43561588	21.17113214	1.10336000
Ti	25.68310776	10.68408607	1.10336000
Ti	25.68310776	21.17113214	1.10336000
Ti	14.24749588	10.68408607	1.10336000
Ti	14.24749588	21.17113214	1.10336000
Ti	29.49498776	10.68408607	1.10336000
Ti	29.49498776	21.17113214	1.10336000
Ti	18.05936588	10.68408607	1.10336000
Ti	18.05936588	21.17113214	1.10336000
Ti	12.34155588	15.92761607	1.10336000
Ti	12.34155588	26.41466214	1.10336000
Ti	27.58904776	15.92761607	1.10336000
Ti	27.58904776	26.41466214	1.10336000
Ti	16.15343588	15.92761607	1.10336000
Ti	16.15343588	26.41466214	1.10336000
Ti	19.96530588	15.92761607	1.10336000
Ti	19.96530588	26.41466214	1.10336000
Ti	12.34155588	12.95945607	1.99114000
Ti	12.34155588	23.44650214	1.99114000
Ti	27.58904776	12.95945607	1.99114000
Ti	27.58904776	23.44650214	1.99114000
Ti	16.15343588	12.95945607	1.99114000
Ti	16.15343588	23.44650214	1.99114000
Ti	19.96530588	12.95945607	1.99114000
Ti	19.96530588	23.44650214	1.99114000
Ti	10.43561588	18.20298607	1.99115000
Ti	10.43561588	28.69003214	1.99115000
Ti	25.68310776	18.20298607	1.99115000
Ti	25.68310776	28.69003214	1.99115000
Ti	14.24749588	18.20298607	1.99115000
Ti	14.24749588	28.69003214	1.99115000
Ti	29.49498776	18.20298607	1.99115000
Ti	29.49498776	28.69003214	1.99115000
Ti	18.05936588	18.20298607	1.99115000
Ti	18.05936588	28.69003214	1.99115000
O	6.62374588	19.30006607	0.37332000
O	6.62374588	29.78711214	0.37332000
O	21.87123776	19.30006607	0.37332000
O	21.87123776	29.78711214	0.37332000
O	8.52968588	14.05653607	0.37332000
O	8.52968588	24.54358214	0.37332000
O	23.77717776	14.05653607	0.37332000
O	23.77717776	24.54358214	0.37332000
O	8.52968588	11.08838607	1.26110000
O	8.52968588	21.57543214	1.26110000
O	23.77717776	11.08838607	1.26110000
O	23.77717776	21.57543214	1.26110000
O	6.62374588	16.33190607	1.26111000
O	6.62374588	26.81895214	1.26111000
O	21.87123776	16.33190607	1.26111000
O	21.87123776	26.81895214	1.26111000
O	6.62374588	12.55516607	1.83340000
O	6.62374588	23.04221214	1.83340000
O	21.87123776	12.55516607	1.83340000
O	21.87123776	23.04221214	1.83340000
O	8.52968588	17.79868607	1.83340000
O	8.52968588	28.28573214	1.83340000
O	23.77717776	17.79868607	1.83340000
O	23.77717776	28.28573214	1.83340000
O	8.52968588	14.83053607	2.72118000
O	8.52968588	25.31758214	2.72118000
O	23.77717776	14.83053607	2.72118000
O	23.77717776	25.31758214	2.72118000
O	6.62374588	20.07405607	2.72118000
O	6.62374588	30.56110214	2.72118000
O	21.87123776	20.07405607	2.72118000
O	21.87123776	30.56110214	2.72118000
O	10.43561588	19.30006607	0.37332000
O	10.43561588	29.78711214	0.37332000
O	25.68310776	19.30006607	0.37332000
O	25.68310776	29.78711214	0.37332000
O	14.24749588	19.30006607	0.37332000
O	14.24749588	29.78711214	0.37332000
O	29.49498776	19.30006607	0.37332000
O	29.49498776	29.78711214	0.37332000
O	18.05936588	19.30006607	0.37332000
O	18.05936588	29.78711214	0.37332000
O	12.34155588	14.05653607	0.37332000
O	12.34155588	24.54358214	0.37332000
O	27.58904776	14.05653607	0.37332000
O	27.58904776	24.54358214	0.37332000
O	16.15343588	14.05653607	0.37332000
O	16.15343588	24.54358214	0.37332000
O	19.96530588	14.05653607	0.37332000
O	19.96530588	24.54358214	0.37332000
O	12.34155588	11.08838607	1.26110000
O	12.34155588	21.57543214	1.26110000
O	27.58904776	11.08838607	1.26110000
O	27.58904776	21.57543214	1.26110000
O	16.15343588	11.08838607	1.26110000
O	16.15343588	21.57543214	1.26110000
O	19.96530588	11.08838607	1.26110000
O	19.96530588	21.57543214	1.26110000
O	10.43561588	16.33190607	1.26111000
O	10.43561588	26.81895214	1.26111000
O	25.68310776	16.33190607	1.26111000
O	25.68310776	26.81895214	1.26111000
O	14.24749588	16.33190607	1.26111000
O	14.24749588	26.81895214	1.26111000
O	29.49498776	16.33190607	1.26111000
O	29.49498776	26.81895214	1.26111000
O	18.05936588	16.33190607	1.26111000
O	18.05936588	26.81895214	1.26111000
O	10.43561588	12.55516607	1.83340000
O	10.43561588	23.04221214	1.83340000
O	25.68310776	12.55516607	1.83340000
O	25.68310776	23.04221214	1.83340000
O	14.24749588	12.55516607	1.83340000
O	14.24749588	23.04221214	1.83340000
O	29.49498776	12.55516607	1.83340000
O	29.49498776	23.04221214	1.83340000
O	18.05936588	12.55516607	1.83340000
O	18.05936588	23.04221214	1.83340000
O	12.34155588	17.79868607	1.83340000
O	12.34155588	28.28573214	1.83340000
O	27.58904776	17.79868607	1.83340000
O	27.58904776	28.28573214	1.83340000
O	16.15343588	17.79868607	1.83340000
O	16.15343588	28.28573214	1.83340000
O	19.96530588	17.79868607	1.83340000
O	19.96530588	28.28573214	1.83340000
O	12.34155588	14.83053607	2.72118000
O	12.34155588	25.31758214	2.72118000
O	27.58904776	14.83053607	2.72118000
O	27.58904776	25.31758214	2.72118000
O	16.15343588	14.83053607	2.72118000
O	16.15343588	25.31758214	2.72118000
O	19.96530588	14.83053607	2.72118000
O	19.96530588	25.31758214	2.72118000
O	10.43561588	20.07405607	2.72118000
O	10.43561588	30.56110214	2.72118000
O	25.68310776	20.07405607	2.72118000
O	25.68310776	30.56110214	2.72118000
O	14.24749588	20.07405607	2.72118000
O	14.24749588	30.56110214	2.72118000
O	29.49498776	20.07405607	2.72118000
O	29.49498776	30.56110214	2.72118000
O	18.05936588	20.07405607	2.72118000
O	18.05936588	30.56110214	2.72118000
Ti	6.64219220	9.20219811	4.65002136
Ti	6.72607091	6.28631534	5.50270101
Ti	2.80522701	9.10865615	4.76577166
Ti	0.93374802	3.90420581	4.78662157
Ti	4.73001798	4.05594192	4.77076774
Ti	0.79258259	1.00011212	5.48352506
Ti	4.76303286	1.01389477	5.49466014
Ti	2.75765940	6.21173865	5.56535644
O	6.72070677	7.33789769	3.91533819
O	6.62395767	4.38441827	4.82046419
O	6.70946390	0.50963087	5.76677503
O	6.69223450	8.02087671	6.30841397
O	2.68756643	7.29231946	3.95560457
O	0.71099364	1.99143390	3.85911846
O	4.88783004	2.13034795	3.95528190
O	0.84299592	9.53713980	4.80193178
O	4.71217889	9.63177369	4.77441489
O	2.75873703	4.30329733	4.89785872
O	2.76853935	0.62760366	5.66848458
O	0.84813567	5.71024222	5.75170321
O	4.68348018	5.80770546	5.74089219
O	0.92592866	2.75148521	6.28111044
O	4.75163387	2.80968626	6.34496666
O	2.82798277	7.96761935	6.36255755
Ti	21.83061593	9.22898281	4.81111821
Ti	8.56379283	3.95650676	4.74707020
Ti	23.78047299	3.92790749	4.74157146
Ti	8.60482255	1.02529562	5.44858141
Ti	23.73698412	1.07436584	5.56323915
Ti	21.81541140	6.30254224	5.50593918
Ti	10.47715405	9.26038640	4.70267852
Ti	25.62372435	9.22192385	4.69954837
Ti	14.24148817	9.20188320	4.79403949
Ti	29.58140256	9.15716832	4.78560375
Ti	17.98373133	9.26077633	4.75048342
Ti	12.32040669	3.94961563	4.74661938
Ti	27.61730459	3.94266886	4.79559278
Ti	16.03715755	3.96464929	4.82292999
Ti	19.95891675	3.96925760	4.82781734
Ti	12.34059181	1.05629103	5.58181151
Ti	27.46938140	1.09265131	5.53160076
Ti	16.16461976	1.00583263	5.52426150
Ti	19.83519568	1.05819121	5.51479388
Ti	10.50545543	6.34684822	5.51879641
Ti	25.65801655	6.33217201	5.50766635
Ti	14.20866573	6.32878058	5.44149469
Ti	29.49804949	6.28884564	5.48228178
Ti	18.05324768	6.20773120	5.49174093
O	21.92437218	7.27406056	3.95848761
O	8.58134076	1.98187844	3.79455587
O	23.84358978	2.14258617	3.91881575
O	8.52336141	9.66333377	4.80762194
O	23.76405229	9.57747511	4.93098223
O	21.84008486	4.28168428	4.75085857
O	21.76140859	0.58219791	5.82878444
O	8.63590675	5.75978832	5.79841375
O	23.72050967	5.83860436	5.79479347
O	8.74334586	2.74274915	6.31503094
O	23.63478927	2.78755683	6.38394059
O	21.73735403	8.05111213	6.38242972
O	10.42027116	7.35381429	3.92308519
O	25.63080651	7.28996796	3.88806343
O	14.08859859	7.37161976	3.94679350
O	29.68092691	7.34273639	3.93525881
O	17.88522937	7.45306898	3.96311967
O	12.38960153	2.13670688	3.92837574
O	27.55202323	2.08930028	3.95586254
O	16.13659543	2.08917705	3.95709144
O	19.86174823	2.14014561	3.96064672
O	12.33501564	9.80905567	4.69567938
O	27.61680421	9.57263180	4.64743904
O	16.11230340	9.65768113	4.73736398
O	19.97030679	9.63020810	4.75273798
O	10.46969572	4.52457544	4.69840285
O	25.65644874	4.21590324	4.74380333
O	14.18784784	4.41117782	4.89649449
O	29.50428822	4.38268781	4.80883636
O	18.06244791	4.32931752	4.64688785
O	10.47111456	0.55492757	5.66623562
O	25.59718601	0.72164370	5.75908921
O	14.13898606	0.52936279	5.77581447
O	29.32789015	0.50988628	5.99657380
O	18.02501978	0.61618704	5.80545827
O	12.32579495	5.82545931	5.78131017
O	27.51155155	5.84979281	5.57283419
O	16.09527953	5.79138398	5.70901610
O	19.88809913	5.76256229	5.76593981
O	12.41674007	2.75512291	6.40865980
O	27.62034054	2.83451772	6.40280370
O	16.05139798	2.68723601	6.41854849
O	19.98374825	2.76599136	6.45727506
O	10.37824913	8.17287437	6.36690483
O	25.65262326	8.07039851	6.33599645
O	14.29695076	8.10837950	6.38383144
O	29.53836800	7.93886808	6.38684009
O	17.85308269	7.95910616	6.45857840
Ti	6.70378001	19.69626567	4.73608092
Ti	6.67896698	30.22362728	4.81408178
Ti	6.59328286	16.78879273	5.48449796
Ti	6.51036962	27.28983499	5.33960115
Ti	2.94488946	19.71684683	4.73556168
Ti	2.78551820	30.14635145	4.80018506
Ti	0.98415462	14.27662456	4.72746988
Ti	0.83836749	25.05201936	4.73102139
Ti	4.72465465	14.42736935	4.88098179
Ti	4.62201560	25.00669430	4.75546245
Ti	0.91788247	11.44046701	5.52242073
Ti	1.05862106	22.09202515	5.52948693
Ti	4.71925113	11.50290544	5.58562161
Ti	4.85285252	22.06482284	5.53000558
Ti	2.79888619	16.79932568	5.51114733
Ti	2.80770351	27.28976812	5.48462087
O	6.95738904	17.83185932	3.90496190
O	6.58836936	28.43585008	3.93505414
O	6.58800753	14.87958689	4.77180152
O	6.61532982	25.42026339	4.73127180
O	6.69419852	11.04814772	5.88024624
O	6.71215199	21.53047732	5.77988897
O	6.65787839	18.56015694	6.23710076
O	6.51448121	28.90659683	6.30464479
O	2.70551322	17.78294157	3.94514345
O	2.93074448	28.29943978	3.98713336
O	0.92559245	12.56421843	3.91610512
O	0.93847722	23.18444223	3.95692300
O	4.77612587	12.55009044	3.85029353
O	4.79796852	23.13055193	4.01187549
O	1.05918046	20.17151515	4.83886733
O	0.81519255	30.69061111	4.72127372
O	4.82987765	20.17210965	4.67476329
O	4.71833276	30.58553543	4.84683631
O	2.78777507	14.90184998	4.80626378
O	2.73574973	25.40471732	4.76688187
O	2.80336746	11.05037000	5.91206430
O	2.92777494	21.58389045	5.49411879
O	0.90665620	16.91448904	5.97407977
O	0.84261832	26.98145208	5.78912187
O	4.76129242	16.30980276	5.78062147
O	4.65789031	26.84307569	5.66934226
O	0.83850040	13.21796288	6.29248641
O	0.91696007	23.90645938	6.32504055
O	4.57467854	13.32131949	6.37466296
O	4.75966470	23.78232833	6.40360987
O	3.06443416	18.58553650	6.33598876
O	2.62811151	28.96987054	6.35940133
Ti	22.05568303	19.70888127	4.67856427
Ti	21.87425073	30.21197518	4.79503480
Ti	8.47858796	14.50381677	4.72444098
Ti	8.52339542	24.88631341	4.81978293
Ti	23.91866214	14.40230310	4.66492900
Ti	23.87773633	24.86795438	4.84801983
Ti	8.56262802	11.59880404	5.50068903
Ti	8.65968576	21.95955267	5.60738998
Ti	23.75328676	11.47730553	5.65704567
Ti	23.92695776	21.94803294	5.45199719
Ti	21.96176110	16.73829058	5.46718717
Ti	21.94565084	27.31647292	5.50390404
Ti	10.50391408	19.68642562	4.68605373
Ti	10.44529035	30.16063006	4.80877943
Ti	25.81709544	19.70744075	4.76813539
Ti	25.66226350	30.30098641	4.79550995
Ti	14.23844526	19.65330372	4.81550053
Ti	14.21717711	30.21812788	4.77154885
Ti	29.53992499	19.76424602	4.72253512
Ti	29.35298415	30.20252031	4.69123429
Ti	18.09506772	19.76285770	4.85551402
Ti	18.04715172	30.22243448	4.81815043
Ti	12.28413275	14.48486962	4.76906010
Ti	12.32867247	25.00579072	4.84075222
Ti	27.84771845	14.46315930	4.79387799
Ti	27.55230489	25.02771944	4.69416352
Ti	16.07026942	14.42422378	4.70242764
Ti	16.23928903	24.97531482	4.83334878
Ti	19.91004341	14.45811590	4.63249356
Ti	19.97877938	24.96751332	4.72803915
Ti	12.28926798	11.56693285	5.41475641
Ti	12.48358326	22.06554844	5.48018113
Ti	27.61927218	11.50986455	5.42771771
Ti	27.60751483	22.11907778	5.49169579
Ti	16.04574193	11.50837539	5.58807543
Ti	16.14897646	21.93847860	5.43439986
Ti	19.80720049	11.50364470	5.58890380
Ti	20.11742421	21.99496641	5.38388975
Ti	10.37743252	16.76282498	5.37760785
Ti	10.36884663	27.23577692	5.45799595
Ti	25.82932783	16.70576931	5.47169655
Ti	25.71490308	27.40262458	5.58014432
Ti	14.02109206	16.78963551	5.73480774
Ti	14.25401362	27.28404578	5.42542684
Ti	29.57613422	16.89513679	5.49820584
Ti	29.45757309	27.27234825	5.52421934
Ti	17.97800859	16.81435284	5.44564823
Ti	18.07029470	27.28498355	5.48270623
O	21.96270015	17.67535499	3.84844528
O	21.95714828	28.38316104	3.95492126
O	8.61758854	12.58019134	3.89518042
O	8.65689374	23.10217442	4.05706671
O	23.74728783	12.48762789	4.03388275
O	23.79700854	23.09296919	3.94519287
O	8.60741366	20.11961672	4.81852831
O	8.51495700	30.66583459	4.76407552
O	23.93041343	20.14033081	4.70530739
O	23.75519123	30.65341733	4.90710790
O	21.94929556	14.80680219	4.91803067
O	21.96940841	25.45233655	4.71291639
O	21.78295560	10.95695088	5.97589130
O	22.06545854	21.44002579	5.80464399
O	8.50206152	16.25948182	5.79429574
O	8.49461043	26.72040200	5.56668149
O	23.94487961	16.36534551	5.57064179
O	23.84596454	26.74360034	5.84813402
O	8.73929649	13.34418257	6.37048208
O	8.54207298	23.75692019	6.43122300
O	23.90113887	13.29696442	6.46578457
O	23.88458392	23.74994827	6.42572657
O	22.03233832	18.51718539	6.29736367
O	21.80310357	29.04911301	6.39609958
O	10.39318740	17.80271663	3.85342760
O	10.33124766	28.35537162	3.95548242
O	25.80921084	17.76006703	3.92701739
O	25.62682679	28.36767164	3.98184944
O	14.29190562	17.82476295	3.97402784
O	14.24081073	28.29621997	3.84381088
O	29.56342844	17.90901782	3.98974919
O	29.50306802	28.34390324	3.96688995
O	18.05544414	17.86007519	3.86957220
O	18.01292893	28.43440356	3.95661402
O	12.29818871	12.62328550	3.88518594
O	12.40406808	23.16633420	3.92570286
O	27.70755599	12.57920002	3.84673704
O	27.53206929	23.07263244	3.90568071
O	15.99056983	12.54070126	3.93648649
O	16.06938829	23.06776339	3.94906488
O	20.03585326	12.50860703	3.97224272
O	20.11034947	23.12422958	3.97061456
O	12.40261037	20.22431786	4.70142294
O	12.28336360	30.56466935	4.63412918
O	27.62362204	20.26379004	4.60714318
O	27.54559426	30.70493111	4.77047413
O	16.21773606	20.04955121	4.76063713
O	16.12893451	30.67926174	4.59997520
O	20.09320612	20.06879975	4.83438636
O	19.98984166	30.70713541	4.67668251
O	10.42653872	14.80474058	4.66031179
O	10.35658141	25.25625750	4.76871727
O	25.85328081	14.85755884	4.91243223
O	25.68143023	25.44113170	4.73843963
O	14.27029882	14.92156329	4.97709252
O	14.32386107	25.36865411	4.88870223
O	29.66162811	15.04804435	4.72131693
O	29.46559562	25.40039461	4.78229224
O	18.00947175	14.95719847	4.82592931
O	18.07023078	25.34468778	5.15462576
O	10.38845283	11.14309156	5.60887023
O	10.59533208	21.36256235	5.91596018
O	25.75696925	11.02101449	5.84498244
O	25.73348015	21.53194342	5.91336092
O	14.18110611	11.02949244	5.87443500
O	14.29157685	21.51702003	5.72731655
O	29.51989322	10.94965257	5.86173408
O	29.61163429	21.54647141	5.76719119
O	17.98259028	11.05098231	5.81160324
O	18.18144862	21.54465279	5.61085805
O	12.17435297	16.25746181	5.88111051
O	12.30608834	26.83004274	5.77324671
O	27.74867442	16.25557466	5.78929330
O	27.54312572	26.85813447	5.77124535
O	16.08727500	16.34805427	5.69842523
O	16.17004524	26.79382309	5.75115596
O	20.01818461	16.25572375	5.56121208
O	19.99316688	26.84138108	5.65303918
O	12.39862506	13.30193165	6.40922342
O	12.33820214	23.72756745	6.34440336
O	27.90537518	13.16362000	6.33272898
O	27.72095428	23.85459892	6.25390543
O	16.33828024	13.29106140	6.33747431
O	16.24466508	23.68006194	6.40617066
O	19.91873229	13.27996722	6.31418831
O	20.07185177	23.74172311	6.33735981
O	10.54398213	18.48536398	6.27568343
O	10.23596850	29.01097806	6.34830163
O	25.75198743	18.43136046	6.41399533
O	25.79538949	29.10779004	6.34976463
O	14.13746125	18.64840788	6.43715027
O	14.42163473	29.05815301	6.29159328
O	29.25235239	18.72997857	6.30501418
O	29.26336860	29.04519505	6.40706111
O	18.07855375	18.54731524	6.38279194
O	18.00763566	29.04268828	6.44357244
H	13.70652994	13.96333184	7.93289438
H	13.81448620	14.86290185	11.26753230
H	14.30928476	18.40569005	8.93648646
O	14.05218839	16.12923041	7.52392787
O	13.90584555	14.37749926	8.82406293
C	13.99524396	15.72084222	8.73973875
C	13.99967154	16.55032062	9.91692687
C	13.75330079	15.93970819	11.21491706
C	14.18653732	17.92638763	9.91627333
N	12.77008864	19.88430370	15.44242783
N	15.85554340	22.28505969	17.17960648
N	15.34386510	20.85541303	14.55920091
N	13.11148302	21.26135187	18.11993880
C	20.95355227	22.96160771	14.36137604
C	15.31427831	23.31535711	22.98452183
C	7.36429757	19.81431841	17.64331375
C	18.51137739	23.08673651	14.66966521
C	14.86545836	23.42391724	20.62948150
C	9.78913610	19.58864247	17.87118422
C	19.72977976	24.78766642	13.43793104
C	14.30542426	25.32168115	21.97790487
C	8.34193709	18.28362103	19.24638401
C	14.02394770	19.02579963	13.50857143
C	17.24976671	22.43196891	15.12366199
C	14.76209465	22.71036480	19.32787276
C	11.15177998	20.04627010	17.34131999
C	15.13196609	19.91859687	13.61593032
C	16.55952549	21.55909088	14.26398962
C	13.59612926	21.89309347	19.21916318
C	11.79757804	20.91648027	18.21201020
C	16.29934599	19.94583446	12.71908176
C	17.14636569	20.92877389	13.16769353
C	12.44748313	22.01510048	20.08865811
C	11.34544216	21.46149404	19.49977426
C	12.92083776	19.05366893	14.34909268
C	16.85562217	22.88833490	16.42400243
C	15.80164919	22.91017165	18.38167218
C	11.54870191	19.56783490	16.05622924
C	11.82785957	18.05372302	14.39982915
C	17.46384507	23.91040945	17.24623919
C	16.80829748	23.92316263	18.41188898
C	10.96771191	18.42721977	15.38345080
H	11.70329897	17.09504717	13.79988348
H	18.12919949	24.67161270	16.87637874
H	16.97172004	24.71980514	19.15352280
H	9.98839265	18.01769899	15.73773749
H	16.41389336	19.45351582	11.76484270
H	18.06138892	21.29747181	12.69355525
H	12.44950883	22.53872555	21.10194555
H	10.34112802	21.23330717	19.90562253
H	19.74626060	25.55969330	12.67907939
H	13.80778977	26.34515381	22.10359784
H	8.27676167	17.61011676	20.12928963
H	21.87871782	22.41235692	14.63542779
H	15.73933912	22.69596115	23.88851938
H	6.36624283	20.28653010	17.21303857
H	14.66946976	21.11563815	15.31140985
H	13.68567341	21.09591923	17.27079855
C	22.14373715	24.54560183	12.70590994
H	22.21932633	25.67584593	12.62365866
H	21.90135762	24.25013672	11.68509207
H	23.13532810	24.14011798	13.06925595
C	19.68721342	21.12439577	15.55017291
H	20.38380539	20.40473866	15.16147077
H	18.66389659	20.72206379	15.50980220
H	19.88914704	21.14413321	16.61386259
C	17.28956883	25.08851798	13.66725335
H	17.52747625	26.08484542	13.22280367
H	16.59528952	25.16757680	14.50684765
H	16.77452608	24.57457465	12.82726971
C	10.77350230	17.86866856	19.46658626
H	10.97406927	18.20171214	20.48198621
H	11.69583225	18.04793237	18.83169496
H	10.59736537	16.78363387	19.47778765
C	8.78659178	21.21475471	16.16967233
H	9.05795089	20.92696245	15.13932944
H	9.58279978	21.91460557	16.42948150
H	7.90197219	21.81133451	15.99812411
C	5.76085283	18.45019007	18.96137097
H	5.53708919	18.19740706	20.04793243
H	5.45683376	17.61225197	18.31001686
H	5.07344111	19.27596565	18.77574129
C	13.52875500	25.37747974	19.58555616
H	13.20158760	24.59856198	18.85743266
H	14.07277365	26.20378648	19.07076220
H	12.65814238	25.98866640	19.96598892
C	15.86515621	21.34302958	21.65272521
H	16.63933884	21.21325682	20.92794221
H	15.08632566	20.70471028	21.36905754
H	16.17630572	21.04897609	22.66178312
C	14.66131797	25.18557066	24.49476519
H	14.77273321	24.38970904	25.30755012
H	13.60645075	25.56104057	24.64964968
H	15.37869195	26.02516360	24.64275217
C	20.96144852	24.08358758	13.53334245
C	19.75767847	22.46554813	14.93043206
C	18.53284533	24.27655206	13.94724932
C	14.31746308	24.73566257	20.68176826
C	15.42361371	22.74519874	21.72569368
C	14.75172416	24.60710692	23.10234558
C	9.61668765	18.61930531	18.86139507
C	8.64225065	20.16252220	17.22207822
C	7.20881030	18.84587661	18.63719319
H	13.90080564	16.29225412	13.40416848
H	14.08065854	19.80461308	11.01954294
C	14.01610363	18.13457576	12.29185466
C	13.90373376	16.70252892	12.37426742
C	14.05199807	18.71265235	11.05407885

Ti O H C N 0
6-31G*
****

