%chk=f00012031.chk
%mem=24GB
%nproc=12
#p b3lyp/6-31G*

title

0 1
Ti	2.81187400	0.19704000	1.10336000
Ti	0.90594400	5.44057000	1.10336000
Ti	4.71781400	5.44057000	1.10336000
Ti	0.90594400	2.47241000	1.99114000
Ti	4.71781400	2.47241000	1.99114000
Ti	2.81187400	7.71594000	1.99115000
O	2.81187400	8.81302000	0.37332000
O	0.90594400	3.56949000	0.37332000
O	4.71781400	3.56949000	0.37332000
O	0.90594400	0.60134000	1.26110000
O	4.71781400	0.60134000	1.26110000
O	2.81187400	5.84486000	1.26111000
O	2.81187400	2.06812000	1.83340000
O	0.90594400	7.31164000	1.83340000
O	4.71781400	7.31164000	1.83340000
O	0.90594400	4.34349000	2.72118000
O	4.71781400	4.34349000	2.72118000
O	2.81187400	9.58701000	2.72118000
Ti	6.62374588	0.19704000	1.10336000
Ti	21.87123776	0.19704000	1.10336000
Ti	8.52968588	5.44057000	1.10336000
Ti	23.77717776	5.44057000	1.10336000
Ti	8.52968588	2.47241000	1.99114000
Ti	23.77717776	2.47241000	1.99114000
Ti	6.62374588	7.71594000	1.99115000
Ti	21.87123776	7.71594000	1.99115000
Ti	10.43561588	0.19704000	1.10336000
Ti	25.68310776	0.19704000	1.10336000
Ti	14.24749588	0.19704000	1.10336000
Ti	29.49498776	0.19704000	1.10336000
Ti	18.05936588	0.19704000	1.10336000
Ti	12.34155588	5.44057000	1.10336000
Ti	27.58904776	5.44057000	1.10336000
Ti	16.15343588	5.44057000	1.10336000
Ti	19.96530588	5.44057000	1.10336000
Ti	12.34155588	2.47241000	1.99114000
Ti	27.58904776	2.47241000	1.99114000
Ti	16.15343588	2.47241000	1.99114000
Ti	19.96530588	2.47241000	1.99114000
Ti	10.43561588	7.71594000	1.99115000
Ti	25.68310776	7.71594000	1.99115000
Ti	14.24749588	7.71594000	1.99115000
Ti	29.49498776	7.71594000	1.99115000
Ti	18.05936588	7.71594000	1.99115000
O	6.62374588	8.81302000	0.37332000
O	21.87123776	8.81302000	0.37332000
O	8.52968588	3.56949000	0.37332000
O	23.77717776	3.56949000	0.37332000
O	8.52968588	0.60134000	1.26110000
O	23.77717776	0.60134000	1.26110000
O	6.62374588	5.84486000	1.26111000
O	21.87123776	5.84486000	1.26111000
O	6.62374588	2.06812000	1.83340000
O	21.87123776	2.06812000	1.83340000
O	8.52968588	7.31164000	1.83340000
O	23.77717776	7.31164000	1.83340000
O	8.52968588	4.34349000	2.72118000
O	23.77717776	4.34349000	2.72118000
O	6.62374588	9.58701000	2.72118000
O	21.87123776	9.58701000	2.72118000
O	10.43561588	8.81302000	0.37332000
O	25.68310776	8.81302000	0.37332000
O	14.24749588	8.81302000	0.37332000
O	29.49498776	8.81302000	0.37332000
O	18.05936588	8.81302000	0.37332000
O	12.34155588	3.56949000	0.37332000
O	27.58904776	3.56949000	0.37332000
O	16.15343588	3.56949000	0.37332000
O	19.96530588	3.56949000	0.37332000
O	12.34155588	0.60134000	1.26110000
O	27.58904776	0.60134000	1.26110000
O	16.15343588	0.60134000	1.26110000
O	19.96530588	0.60134000	1.26110000
O	10.43561588	5.84486000	1.26111000
O	25.68310776	5.84486000	1.26111000
O	14.24749588	5.84486000	1.26111000
O	29.49498776	5.84486000	1.26111000
O	18.05936588	5.84486000	1.26111000
O	10.43561588	2.06812000	1.83340000
O	25.68310776	2.06812000	1.83340000
O	14.24749588	2.06812000	1.83340000
O	29.49498776	2.06812000	1.83340000
O	18.05936588	2.06812000	1.83340000
O	12.34155588	7.31164000	1.83340000
O	27.58904776	7.31164000	1.83340000
O	16.15343588	7.31164000	1.83340000
O	19.96530588	7.31164000	1.83340000
O	12.34155588	4.34349000	2.72118000
O	27.58904776	4.34349000	2.72118000
O	16.15343588	4.34349000	2.72118000
O	19.96530588	4.34349000	2.72118000
O	10.43561588	9.58701000	2.72118000
O	25.68310776	9.58701000	2.72118000
O	14.24749588	9.58701000	2.72118000
O	29.49498776	9.58701000	2.72118000
O	18.05936588	9.58701000	2.72118000
Ti	2.81187400	10.68408607	1.10336000
Ti	2.81187400	21.17113214	1.10336000
Ti	0.90594400	15.92761607	1.10336000
Ti	0.90594400	26.41466214	1.10336000
Ti	4.71781400	15.92761607	1.10336000
Ti	4.71781400	26.41466214	1.10336000
Ti	0.90594400	12.95945607	1.99114000
Ti	0.90594400	23.44650214	1.99114000
Ti	4.71781400	12.95945607	1.99114000
Ti	4.71781400	23.44650214	1.99114000
Ti	2.81187400	18.20298607	1.99115000
Ti	2.81187400	28.69003214	1.99115000
O	2.81187400	19.30006607	0.37332000
O	2.81187400	29.78711214	0.37332000
O	0.90594400	14.05653607	0.37332000
O	0.90594400	24.54358214	0.37332000
O	4.71781400	14.05653607	0.37332000
O	4.71781400	24.54358214	0.37332000
O	0.90594400	11.08838607	1.26110000
O	0.90594400	21.57543214	1.26110000
O	4.71781400	11.08838607	1.26110000
O	4.71781400	21.57543214	1.26110000
O	2.81187400	16.33190607	1.26111000
O	2.81187400	26.81895214	1.26111000
O	2.81187400	12.55516607	1.83340000
O	2.81187400	23.04221214	1.83340000
O	0.90594400	17.79868607	1.83340000
O	0.90594400	28.28573214	1.83340000
O	4.71781400	17.79868607	1.83340000
O	4.71781400	28.28573214	1.83340000
O	0.90594400	14.83053607	2.72118000
O	0.90594400	25.31758214	2.72118000
O	4.71781400	14.83053607	2.72118000
O	4.71781400	25.31758214	2.72118000
O	2.81187400	20.07405607	2.72118000
O	2.81187400	30.56110214	2.72118000
Ti	6.62374588	10.68408607	1.10336000
Ti	6.62374588	21.17113214	1.10336000
Ti	21.87123776	10.68408607	1.10336000
Ti	21.87123776	21.17113214	1.10336000
Ti	8.52968588	15.92761607	1.10336000
Ti	8.52968588	26.41466214	1.10336000
Ti	23.77717776	15.92761607	1.10336000
Ti	23.77717776	26.41466214	1.10336000
Ti	8.52968588	12.95945607	1.99114000
Ti	8.52968588	23.44650214	1.99114000
Ti	23.77717776	12.95945607	1.99114000
Ti	23.77717776	23.44650214	1.99114000
Ti	6.62374588	18.20298607	1.99115000
Ti	6.62374588	28.69003214	1.99115000
Ti	21.87123776	18.20298607	1.99115000
Ti	21.87123776	28.69003214	1.99115000
Ti	10.43561588	10.68408607	1.10336000
Ti	10.43561588	21.17113214	1.10336000
Ti	25.68310776	10.68408607	1.10336000
Ti	25.68310776	21.17113214	1.10336000
Ti	14.24749588	10.68408607	1.10336000
Ti	14.24749588	21.17113214	1.10336000
Ti	29.49498776	10.68408607	1.10336000
Ti	29.49498776	21.17113214	1.10336000
Ti	18.05936588	10.68408607	1.10336000
Ti	18.05936588	21.17113214	1.10336000
Ti	12.34155588	15.92761607	1.10336000
Ti	12.34155588	26.41466214	1.10336000
Ti	27.58904776	15.92761607	1.10336000
Ti	27.58904776	26.41466214	1.10336000
Ti	16.15343588	15.92761607	1.10336000
Ti	16.15343588	26.41466214	1.10336000
Ti	19.96530588	15.92761607	1.10336000
Ti	19.96530588	26.41466214	1.10336000
Ti	12.34155588	12.95945607	1.99114000
Ti	12.34155588	23.44650214	1.99114000
Ti	27.58904776	12.95945607	1.99114000
Ti	27.58904776	23.44650214	1.99114000
Ti	16.15343588	12.95945607	1.99114000
Ti	16.15343588	23.44650214	1.99114000
Ti	19.96530588	12.95945607	1.99114000
Ti	19.96530588	23.44650214	1.99114000
Ti	10.43561588	18.20298607	1.99115000
Ti	10.43561588	28.69003214	1.99115000
Ti	25.68310776	18.20298607	1.99115000
Ti	25.68310776	28.69003214	1.99115000
Ti	14.24749588	18.20298607	1.99115000
Ti	14.24749588	28.69003214	1.99115000
Ti	29.49498776	18.20298607	1.99115000
Ti	29.49498776	28.69003214	1.99115000
Ti	18.05936588	18.20298607	1.99115000
Ti	18.05936588	28.69003214	1.99115000
O	6.62374588	19.30006607	0.37332000
O	6.62374588	29.78711214	0.37332000
O	21.87123776	19.30006607	0.37332000
O	21.87123776	29.78711214	0.37332000
O	8.52968588	14.05653607	0.37332000
O	8.52968588	24.54358214	0.37332000
O	23.77717776	14.05653607	0.37332000
O	23.77717776	24.54358214	0.37332000
O	8.52968588	11.08838607	1.26110000
O	8.52968588	21.57543214	1.26110000
O	23.77717776	11.08838607	1.26110000
O	23.77717776	21.57543214	1.26110000
O	6.62374588	16.33190607	1.26111000
O	6.62374588	26.81895214	1.26111000
O	21.87123776	16.33190607	1.26111000
O	21.87123776	26.81895214	1.26111000
O	6.62374588	12.55516607	1.83340000
O	6.62374588	23.04221214	1.83340000
O	21.87123776	12.55516607	1.83340000
O	21.87123776	23.04221214	1.83340000
O	8.52968588	17.79868607	1.83340000
O	8.52968588	28.28573214	1.83340000
O	23.77717776	17.79868607	1.83340000
O	23.77717776	28.28573214	1.83340000
O	8.52968588	14.83053607	2.72118000
O	8.52968588	25.31758214	2.72118000
O	23.77717776	14.83053607	2.72118000
O	23.77717776	25.31758214	2.72118000
O	6.62374588	20.07405607	2.72118000
O	6.62374588	30.56110214	2.72118000
O	21.87123776	20.07405607	2.72118000
O	21.87123776	30.56110214	2.72118000
O	10.43561588	19.30006607	0.37332000
O	10.43561588	29.78711214	0.37332000
O	25.68310776	19.30006607	0.37332000
O	25.68310776	29.78711214	0.37332000
O	14.24749588	19.30006607	0.37332000
O	14.24749588	29.78711214	0.37332000
O	29.49498776	19.30006607	0.37332000
O	29.49498776	29.78711214	0.37332000
O	18.05936588	19.30006607	0.37332000
O	18.05936588	29.78711214	0.37332000
O	12.34155588	14.05653607	0.37332000
O	12.34155588	24.54358214	0.37332000
O	27.58904776	14.05653607	0.37332000
O	27.58904776	24.54358214	0.37332000
O	16.15343588	14.05653607	0.37332000
O	16.15343588	24.54358214	0.37332000
O	19.96530588	14.05653607	0.37332000
O	19.96530588	24.54358214	0.37332000
O	12.34155588	11.08838607	1.26110000
O	12.34155588	21.57543214	1.26110000
O	27.58904776	11.08838607	1.26110000
O	27.58904776	21.57543214	1.26110000
O	16.15343588	11.08838607	1.26110000
O	16.15343588	21.57543214	1.26110000
O	19.96530588	11.08838607	1.26110000
O	19.96530588	21.57543214	1.26110000
O	10.43561588	16.33190607	1.26111000
O	10.43561588	26.81895214	1.26111000
O	25.68310776	16.33190607	1.26111000
O	25.68310776	26.81895214	1.26111000
O	14.24749588	16.33190607	1.26111000
O	14.24749588	26.81895214	1.26111000
O	29.49498776	16.33190607	1.26111000
O	29.49498776	26.81895214	1.26111000
O	18.05936588	16.33190607	1.26111000
O	18.05936588	26.81895214	1.26111000
O	10.43561588	12.55516607	1.83340000
O	10.43561588	23.04221214	1.83340000
O	25.68310776	12.55516607	1.83340000
O	25.68310776	23.04221214	1.83340000
O	14.24749588	12.55516607	1.83340000
O	14.24749588	23.04221214	1.83340000
O	29.49498776	12.55516607	1.83340000
O	29.49498776	23.04221214	1.83340000
O	18.05936588	12.55516607	1.83340000
O	18.05936588	23.04221214	1.83340000
O	12.34155588	17.79868607	1.83340000
O	12.34155588	28.28573214	1.83340000
O	27.58904776	17.79868607	1.83340000
O	27.58904776	28.28573214	1.83340000
O	16.15343588	17.79868607	1.83340000
O	16.15343588	28.28573214	1.83340000
O	19.96530588	17.79868607	1.83340000
O	19.96530588	28.28573214	1.83340000
O	12.34155588	14.83053607	2.72118000
O	12.34155588	25.31758214	2.72118000
O	27.58904776	14.83053607	2.72118000
O	27.58904776	25.31758214	2.72118000
O	16.15343588	14.83053607	2.72118000
O	16.15343588	25.31758214	2.72118000
O	19.96530588	14.83053607	2.72118000
O	19.96530588	25.31758214	2.72118000
O	10.43561588	20.07405607	2.72118000
O	10.43561588	30.56110214	2.72118000
O	25.68310776	20.07405607	2.72118000
O	25.68310776	30.56110214	2.72118000
O	14.24749588	20.07405607	2.72118000
O	14.24749588	30.56110214	2.72118000
O	29.49498776	20.07405607	2.72118000
O	29.49498776	30.56110214	2.72118000
O	18.05936588	20.07405607	2.72118000
O	18.05936588	30.56110214	2.72118000
Ti	6.64728786	9.23871938	4.68723786
Ti	6.54480343	6.30992712	5.40006667
Ti	2.78626922	9.29712499	4.75369875
Ti	0.92116586	3.99379928	4.68700771
Ti	4.71147418	4.04383625	4.79175011
Ti	0.98236009	1.09224696	5.65643625
Ti	4.78709862	1.05812631	5.60352363
Ti	2.81200019	6.38911313	5.52387942
O	6.83152674	7.35655730	3.95568748
O	6.50990167	4.48627485	4.77636853
O	6.71713154	0.54870302	5.98014485
O	6.38581354	8.03239869	6.39901116
O	2.96122642	7.47880699	3.95162130
O	1.05921699	2.09556769	4.02368120
O	4.66104256	2.15416352	3.99307038
O	0.87465240	9.70889089	4.80453216
O	4.70072787	9.79992915	4.66658673
O	2.78844778	4.55343391	4.68536004
O	2.86241222	0.57240463	5.88531402
O	0.93117296	6.03791813	5.39408313
O	4.70620629	5.81410133	5.99174422
O	0.84529122	3.01492320	6.35426452
O	4.80753990	2.90921377	6.41912651
O	2.69774152	8.15561396	6.24836564
Ti	21.80276308	9.22894394	4.82220861
Ti	8.38780750	4.05908033	4.78407354
Ti	23.78032578	4.01778444	4.71970217
Ti	8.54092595	1.10166346	5.52902943
Ti	23.78601978	1.08205859	5.47531360
Ti	21.92718483	6.25887528	5.44191656
Ti	10.49978538	9.34939658	4.67941330
Ti	25.70908308	9.31384036	4.77124370
Ti	14.27735947	9.11365767	4.72523914
Ti	29.49201673	9.25246725	4.86178175
Ti	17.98822113	9.26340176	4.69988809
Ti	12.26207940	3.90799613	4.78376618
Ti	27.51775205	4.11883336	4.88799213
Ti	16.13606596	3.87603615	4.63879273
Ti	19.86753791	3.98390736	4.83319716
Ti	12.43381572	0.99971338	5.53673464
Ti	27.64349577	1.13216073	5.39733876
Ti	16.22057487	0.99762869	5.47283070
Ti	19.87575057	1.03586701	5.42090388
Ti	10.37000179	6.34524464	5.53298654
Ti	25.73164837	6.37835173	5.56022800
Ti	14.10239174	6.21206579	5.50039987
Ti	29.51156870	6.29498575	5.42070309
Ti	17.96642634	6.27594446	5.43728773
O	21.87942019	7.26155948	3.90865454
O	8.51008842	2.24317683	3.97816563
O	23.73169688	2.19422257	3.91261032
O	8.50547094	9.67273061	5.12409907
O	23.78604472	9.55833915	4.78321273
O	21.79698989	4.41082000	4.77440909
O	21.86314302	0.58905155	5.65159770
O	8.49586271	5.84477508	5.68726113
O	23.81286071	5.75810052	5.77942613
O	8.34594595	2.81173398	6.31723084
O	24.00304416	2.92489883	6.34995790
O	21.85662267	8.05696684	6.32842585
O	10.42206334	7.49743283	3.99006977
O	25.60806817	7.43538459	3.97882950
O	14.09622356	7.37363989	3.93462239
O	29.24295876	7.34422483	3.92092138
O	18.05625822	7.37466735	3.87891860
O	12.36820229	2.06652029	3.99039688
O	27.56340001	2.35094325	3.97513836
O	16.10020545	1.92088889	3.84443399
O	19.84012187	2.19441584	3.91359932
O	12.44241177	9.71159824	4.76621618
O	27.62116868	9.59809904	4.88413417
O	16.06191561	9.77923488	4.70995175
O	19.92204433	9.63662899	4.67575046
O	10.33703898	4.44441494	4.89174282
O	25.70815179	4.46740018	4.79016803
O	14.20727896	4.32196724	4.91415167
O	29.47904734	4.41573037	4.63012049
O	17.99515483	4.32156400	4.91666959
O	10.50519638	0.50834763	5.73675589
O	25.78471280	0.61748445	5.67848266
O	14.34019495	0.43862922	5.87326409
O	29.51681159	0.67528818	5.75360875
O	18.07312026	0.52228341	5.86080126
O	12.28238204	5.74305277	5.86633261
O	27.65185615	5.92576083	5.75640181
O	16.01524642	5.76156131	5.65335227
O	19.97930575	5.88402869	5.68891490
O	12.28189968	2.76650406	6.43177734
O	27.62149876	2.89567389	6.41349680
O	16.17464740	2.69749957	6.28985172
O	19.93619972	2.78973177	6.45973861
O	10.50966517	8.15027753	6.43766864
O	25.67926790	8.09680381	6.46887227
O	14.46317367	7.85693074	6.38717879
O	29.52561253	7.98132416	6.33913315
O	17.78159151	8.13839941	6.26459258
Ti	6.64208682	19.68705220	4.74100053
Ti	6.68727023	30.19038868	4.84580832
Ti	6.58339419	16.80827071	5.55261750
Ti	6.61584415	27.20944147	5.49599143
Ti	2.84738262	19.66893970	4.84289557
Ti	2.86109209	30.20115775	4.75899958
Ti	0.87216235	14.46748424	4.83550847
Ti	0.93520246	25.02922831	4.78779819
Ti	4.77381126	14.48923202	4.83918630
Ti	4.69961504	24.84939588	4.73868918
Ti	0.84232248	11.57219624	5.55440241
Ti	0.88902681	22.07610038	5.45430778
Ti	4.66727676	11.52152835	5.49299000
Ti	4.63855413	22.03598456	5.42719467
Ti	2.79711030	16.72146613	5.46436546
Ti	2.79474116	27.26108452	5.48451763
O	6.63972813	17.80469600	3.93859069
O	6.63105450	28.30483806	3.94951878
O	6.63272106	14.83696534	4.84974959
O	6.63103527	25.41512816	4.82925855
O	6.68361856	11.14179852	5.68865425
O	6.57713840	21.59358035	5.69935171
O	6.75786311	18.56703790	6.35443684
O	6.75083472	29.01177056	6.34174971
O	2.88130461	17.89924227	3.96693940
O	2.78709687	28.28825174	3.83544585
O	0.82824062	12.55939041	3.95353663
O	0.81545400	23.08520523	3.86916279
O	4.78780381	12.69344666	3.97399865
O	4.69253590	23.09421200	3.94005342
O	0.97339738	20.24741150	4.65547090
O	0.92469647	30.70087019	4.87880785
O	4.73733509	20.15841337	4.74745436
O	4.77111639	30.58230854	4.70938930
O	2.80869060	14.92265840	4.78290933
O	2.79815188	25.38226124	4.80672469
O	2.76634591	11.01236676	5.86864602
O	2.75055384	21.61785325	5.76343194
O	0.94632665	16.36350293	5.72649352
O	0.79511127	26.71885212	5.85672873
O	4.72903034	16.27761651	5.81227675
O	4.65125776	26.91549437	5.70929505
O	0.98320581	13.36819330	6.38029718
O	0.56013252	23.81988214	6.33324900
O	4.46744448	13.34339796	6.39411552
O	4.80471914	23.77822177	6.31359938
O	2.66451632	18.52926862	6.37397837
O	2.70979671	29.08141645	6.31939565
Ti	21.86053498	19.68375556	4.78877918
Ti	21.90747381	30.19013415	4.79327684
Ti	8.49337472	14.48166388	4.85496401
Ti	8.59875253	25.00098614	4.76126900
Ti	23.76857183	14.48372095	4.80889961
Ti	23.79608219	25.01719603	4.79574861
Ti	8.60384660	11.55940294	5.55160220
Ti	8.53475733	22.02113031	5.36102700
Ti	23.72545715	11.46551135	5.45135082
Ti	23.86636066	22.00746236	5.54067818
Ti	21.91146377	16.74118820	5.45755558
Ti	21.88005368	27.37138971	5.48085533
Ti	10.42327584	19.62497204	4.74205668
Ti	10.52202710	30.19504626	4.71677503
Ti	25.70598842	19.71955434	4.69523838
Ti	25.69432055	30.15959542	4.84135320
Ti	14.12089432	19.77523517	4.77020188
Ti	14.34890999	30.15672626	4.82721907
Ti	29.55027975	19.76430970	4.72899323
Ti	29.51129005	30.18063598	4.76633524
Ti	18.09040337	19.65463941	4.70660616
Ti	18.12514427	30.15873402	4.79126243
Ti	12.41293184	14.60006686	4.71227633
Ti	12.29869996	25.01778861	4.86968390
Ti	27.52380273	14.42540561	4.73589115
Ti	27.56312859	25.05447467	4.70274591
Ti	16.18742364	14.47693471	4.69427175
Ti	16.20693097	24.90939082	4.84018878
Ti	20.04747205	14.45228057	4.75230487
Ti	20.01355678	24.91061415	4.77184725
Ti	12.41333349	11.65337060	5.61377747
Ti	12.32136929	22.07494463	5.44006570
Ti	27.58504067	11.53387687	5.52032654
Ti	27.67758099	22.11656336	5.45907552
Ti	16.15103726	11.60972393	5.65175149
Ti	16.30256994	22.03077752	5.63007593
Ti	19.91382561	11.52786351	5.42792564
Ti	19.96629694	21.99932618	5.41635967
Ti	10.33375435	16.71906421	5.56849713
Ti	10.58968810	27.39561191	5.50023393
Ti	25.65180121	16.76944541	5.51818009
Ti	25.80411033	27.30747499	5.62414142
Ti	14.23662131	16.81435262	5.74436637
Ti	14.36129650	27.22352328	5.52395605
Ti	29.53334300	16.77362082	5.49015413
Ti	29.51713380	27.23466809	5.56075095
Ti	18.11221603	16.82190979	5.48100664
Ti	18.21536313	27.20285753	5.44908618
O	21.86323550	17.87424737	3.93069556
O	21.77608170	28.34747568	3.85270995
O	8.55158783	12.69363413	3.99877944
O	8.41158536	23.12963999	3.86886536
O	23.92439460	12.65359900	3.97447522
O	24.03150414	23.09440485	4.00956397
O	8.54253994	20.17855485	4.82952219
O	8.58838663	30.70526796	4.80019149
O	23.77080271	20.18709907	4.72664201
O	23.75618592	30.65715643	4.82259383
O	21.94840437	14.98109018	4.72402009
O	21.84502627	25.47210443	4.71202644
O	21.75876184	11.04962951	5.63246450
O	21.86879853	21.60523422	5.70817673
O	8.50471841	16.26197866	5.86680353
O	8.57297194	26.87918668	5.72121060
O	23.77742725	16.36874997	5.65944105
O	23.82401448	26.85662829	5.74011244
O	8.63289820	13.28110743	6.42066023
O	8.59454275	23.80322706	6.26225135
O	23.80852050	13.17107285	6.46186450
O	23.75482773	23.76745443	6.43926897
O	21.86188996	18.53026722	6.25574442
O	21.92178372	28.96647168	6.30641427
O	10.57184404	17.75594055	3.94618956
O	10.63350327	28.38533779	3.86633526
O	25.71198656	17.83759458	3.98274440
O	25.76526642	28.31948118	3.97898492
O	14.18500581	17.78217096	3.99141002
O	14.25168006	28.24189517	3.94416798
O	29.47316869	17.76628282	3.93963856
O	29.41698482	28.19527718	3.94015862
O	18.23165950	17.85688846	3.95998440
O	18.17391556	28.38297169	3.95631457
O	12.21851857	12.61165329	3.95824458
O	12.48704140	23.17648938	4.01062889
O	27.63358536	12.58574762	3.99702894
O	27.51037120	23.14572688	3.83811943
O	16.17296735	12.61032773	3.94196535
O	16.10967389	23.06723959	4.02996671
O	20.10594023	12.53629414	3.83132400
O	19.93160223	23.02814827	3.88178147
O	12.24763709	20.26422486	4.63607052
O	12.39571433	30.54900007	4.74103868
O	27.63659169	20.11756371	4.73553509
O	27.61134070	30.62228202	4.72665414
O	16.11727550	20.18196027	4.64399473
O	16.20708940	30.56855697	4.67803843
O	19.96027510	20.09781632	4.83796518
O	19.96754868	30.72715817	4.60434335
O	10.47937007	14.79926960	4.90555664
O	10.53839960	25.58160908	4.60216755
O	25.67871517	14.88921437	4.88680079
O	25.69155513	25.48086770	4.84701769
O	14.36751422	15.06784221	4.84423213
O	14.34404006	25.32754166	4.93251104
O	29.46580854	14.89573461	4.73805317
O	29.49986092	25.43865438	4.67658176
O	18.08493224	14.87586835	4.63189614
O	18.14860312	25.36433876	4.66695599
O	10.47338171	11.20616261	5.61779489
O	10.42975646	21.48425125	5.71036936
O	25.58620751	11.14669103	5.61324315
O	25.69867557	21.52114047	5.83374046
O	14.28163636	11.03644006	5.98846311
O	14.22076261	21.50962494	5.76369217
O	29.45053782	11.05946266	6.06174573
O	29.50985721	21.51563126	5.69991354
O	18.01136011	10.99149424	5.91182704
O	18.10127907	21.48372596	5.83153736
O	12.26911835	16.33846988	5.63211508
O	12.45826345	26.75698623	5.93311791
O	27.59478247	16.35596526	5.67094569
O	27.64893357	26.86900881	5.81929520
O	16.22641001	16.59000053	5.80106048
O	16.29457082	26.85739983	5.70704806
O	19.99445238	16.12510391	5.77220276
O	20.02215552	26.74527866	5.86814908
O	12.43219760	13.41989902	6.30339728
O	12.20406326	23.71945229	6.40811006
O	27.40785131	13.31894670	6.42037555
O	27.56918731	23.81707902	6.28264611
O	16.17411473	13.40835837	6.37340478
O	16.49600982	23.78288688	6.51656051
O	19.98661710	13.28762534	6.29589352
O	20.05294076	23.76089963	6.28112843
O	10.13937246	18.50892093	6.33569607
O	10.50746352	29.08177077	6.36454710
O	25.68641661	18.62494103	6.32488809
O	25.67957143	29.11777424	6.47002747
O	14.18648877	18.74631343	6.33568112
O	14.53257342	28.98292799	6.33506837
O	29.49036120	18.51680671	6.22622104
O	29.59220215	29.01802726	6.34033364
O	18.12146935	18.60537515	6.43143048
O	18.10961123	29.04332722	6.40195415
H	15.24265380	14.16870802	7.71079235
H	16.34601884	16.01231988	10.39080296
H	12.20240531	16.76784143	9.82654341
O	13.92435968	16.16019367	7.59754742
O	15.08721866	14.53244937	8.62164775
C	14.45089217	15.73449622	8.67386661
C	14.27201508	16.46143518	9.91930140
C	15.43154967	16.54514581	10.67250059
C	13.03985175	17.02605872	10.38451445
N	12.94868104	19.43936904	15.57879029
N	15.35071870	22.52443906	16.98530841
N	15.29274911	20.62429366	14.61840920
N	13.06398600	21.15380094	18.13784597
C	20.14034239	23.95550152	13.92707310
C	15.97347586	23.65968218	22.72055106
C	7.86275822	18.21810295	18.46001992
C	17.80147930	23.48420454	14.23153162
C	14.65011427	23.47754897	20.62869115
C	10.21751236	18.72091190	18.20131163
C	18.56493576	24.95081863	12.47346114
C	14.34993153	25.34635250	22.21446982
C	9.49901632	16.67216537	19.31442775
C	14.10623136	18.68560433	13.54153179
C	16.73004180	22.65899571	14.93279661
C	14.50695135	22.83913970	19.27619229
C	11.32798494	19.47858823	17.52143597
C	15.13065955	19.68385014	13.61925488
C	16.28351998	21.55204725	14.26920784
C	13.44198678	21.90396155	19.21294840
C	12.00483223	20.36877136	18.36836396
C	16.02997540	20.00761334	12.55421221
C	16.65588809	21.21584987	12.94507673
C	12.44571242	21.60959646	20.25694192
C	11.64415231	20.62305687	19.72862755
C	13.06219313	18.59496748	14.46835425
C	16.40387126	23.04783041	16.22362846
C	15.37314849	23.14415626	18.19923154
C	11.79372277	19.00008198	16.29170725
C	11.99859118	17.70273065	14.50343286
C	17.06681046	24.03827519	16.94245637
C	16.47253416	24.16378710	18.18167587
C	11.18156768	17.94280730	15.58979964
H	11.90457604	16.79328130	13.89713416
H	17.82994617	24.76646471	16.57422977
H	16.76037305	24.93700299	18.90391410
H	10.27319039	17.41114053	15.92883437
H	16.18847893	19.64107178	11.55781302
H	17.40131341	21.72509919	12.35278583
H	12.44524481	22.03966324	21.26686331
H	10.80982294	20.08157544	20.16710333
H	18.34638580	25.70920520	11.70510816
H	13.74686640	26.28950973	22.51453091
H	9.70307049	15.68243402	19.68080567
H	21.16993998	23.79848100	14.31030350
H	16.77751421	23.24420081	23.26803759
H	6.77824411	18.45707042	18.25993380
H	14.89143312	20.53435957	15.56841902
H	13.40314882	21.50488822	17.21237914
C	20.97575948	25.30596549	11.98070136
H	20.60380758	25.80998825	11.05668372
H	21.69536425	24.56913562	11.66433215
H	21.61167001	26.08194457	12.55813245
C	19.60369877	22.32822852	15.68961936
H	18.91702901	21.47906273	15.72803002
H	19.64151907	22.72382229	16.72469904
H	20.66950467	21.99229208	15.48488073
C	16.09883737	24.57224872	12.72967058
H	15.61428140	23.53306326	12.75810266
H	16.08359612	25.06689514	11.76052891
H	15.66003184	25.25804986	13.49462531
C	11.95844197	17.04961793	19.14168155
H	11.97985628	15.93952361	19.31183496
H	12.42560968	17.50804827	20.06873942
H	12.59802537	17.30400244	18.28043288
C	8.55231318	20.22654844	17.04855965
H	7.48141372	20.49972729	17.17387721
H	8.68069139	20.01519424	15.94975498
H	9.28728113	21.04845907	17.32562244
C	7.09302222	16.09291992	19.60284852
H	6.13782504	16.56152006	19.94123686
H	7.50750150	15.65990800	20.50421937
H	6.81098929	15.25465655	18.93623682
C	12.76430136	25.06633811	20.24531160
H	11.83767456	24.60436372	20.70682071
H	12.80736141	24.70973288	19.20903564
H	12.68317286	26.17782251	20.15508457
C	16.35993608	21.80851054	21.08650514
H	17.14303353	22.11574211	20.33355247
H	15.62117983	21.06967369	20.67412424
H	16.74398941	21.27391219	21.91797228
C	15.71562169	25.60233612	24.31336712
H	16.70260684	25.44972120	24.72013805
H	14.98966171	25.48086156	25.09986961
H	15.67754803	26.69968624	24.01890789
C	19.88960908	24.71815530	12.82236055
C	19.13178618	23.30892605	14.66276537
C	17.52288718	24.33938695	13.15484061
C	13.97416795	24.65279052	21.03356349
C	15.63634475	23.02764906	21.51189533
C	15.38125588	24.87199460	23.07225209
C	10.55777601	17.50255259	18.90822595
C	8.88512969	19.02586190	17.89683711
C	8.17318175	17.00248732	19.10758656
H	16.33766355	17.39233083	12.48118380
H	12.12298939	18.18578510	11.98931919
C	14.21260021	17.88217989	12.32251496
C	15.40821595	17.24673763	11.86691942
C	13.00749806	17.78497523	11.52397284

Ti O H C N 0
6-31G*
****

