%chk=f00019336.chk
%mem=24GB
%nproc=12
#p b3lyp/6-31G*

title

0 1
Ti	2.81187400	0.19704000	1.10336000
Ti	0.90594400	5.44057000	1.10336000
Ti	4.71781400	5.44057000	1.10336000
Ti	0.90594400	2.47241000	1.99114000
Ti	4.71781400	2.47241000	1.99114000
Ti	2.81187400	7.71594000	1.99115000
O	2.81187400	8.81302000	0.37332000
O	0.90594400	3.56949000	0.37332000
O	4.71781400	3.56949000	0.37332000
O	0.90594400	0.60134000	1.26110000
O	4.71781400	0.60134000	1.26110000
O	2.81187400	5.84486000	1.26111000
O	2.81187400	2.06812000	1.83340000
O	0.90594400	7.31164000	1.83340000
O	4.71781400	7.31164000	1.83340000
O	0.90594400	4.34349000	2.72118000
O	4.71781400	4.34349000	2.72118000
O	2.81187400	9.58701000	2.72118000
Ti	6.62374588	0.19704000	1.10336000
Ti	21.87123776	0.19704000	1.10336000
Ti	8.52968588	5.44057000	1.10336000
Ti	23.77717776	5.44057000	1.10336000
Ti	8.52968588	2.47241000	1.99114000
Ti	23.77717776	2.47241000	1.99114000
Ti	6.62374588	7.71594000	1.99115000
Ti	21.87123776	7.71594000	1.99115000
Ti	10.43561588	0.19704000	1.10336000
Ti	25.68310776	0.19704000	1.10336000
Ti	14.24749588	0.19704000	1.10336000
Ti	29.49498776	0.19704000	1.10336000
Ti	18.05936588	0.19704000	1.10336000
Ti	12.34155588	5.44057000	1.10336000
Ti	27.58904776	5.44057000	1.10336000
Ti	16.15343588	5.44057000	1.10336000
Ti	19.96530588	5.44057000	1.10336000
Ti	12.34155588	2.47241000	1.99114000
Ti	27.58904776	2.47241000	1.99114000
Ti	16.15343588	2.47241000	1.99114000
Ti	19.96530588	2.47241000	1.99114000
Ti	10.43561588	7.71594000	1.99115000
Ti	25.68310776	7.71594000	1.99115000
Ti	14.24749588	7.71594000	1.99115000
Ti	29.49498776	7.71594000	1.99115000
Ti	18.05936588	7.71594000	1.99115000
O	6.62374588	8.81302000	0.37332000
O	21.87123776	8.81302000	0.37332000
O	8.52968588	3.56949000	0.37332000
O	23.77717776	3.56949000	0.37332000
O	8.52968588	0.60134000	1.26110000
O	23.77717776	0.60134000	1.26110000
O	6.62374588	5.84486000	1.26111000
O	21.87123776	5.84486000	1.26111000
O	6.62374588	2.06812000	1.83340000
O	21.87123776	2.06812000	1.83340000
O	8.52968588	7.31164000	1.83340000
O	23.77717776	7.31164000	1.83340000
O	8.52968588	4.34349000	2.72118000
O	23.77717776	4.34349000	2.72118000
O	6.62374588	9.58701000	2.72118000
O	21.87123776	9.58701000	2.72118000
O	10.43561588	8.81302000	0.37332000
O	25.68310776	8.81302000	0.37332000
O	14.24749588	8.81302000	0.37332000
O	29.49498776	8.81302000	0.37332000
O	18.05936588	8.81302000	0.37332000
O	12.34155588	3.56949000	0.37332000
O	27.58904776	3.56949000	0.37332000
O	16.15343588	3.56949000	0.37332000
O	19.96530588	3.56949000	0.37332000
O	12.34155588	0.60134000	1.26110000
O	27.58904776	0.60134000	1.26110000
O	16.15343588	0.60134000	1.26110000
O	19.96530588	0.60134000	1.26110000
O	10.43561588	5.84486000	1.26111000
O	25.68310776	5.84486000	1.26111000
O	14.24749588	5.84486000	1.26111000
O	29.49498776	5.84486000	1.26111000
O	18.05936588	5.84486000	1.26111000
O	10.43561588	2.06812000	1.83340000
O	25.68310776	2.06812000	1.83340000
O	14.24749588	2.06812000	1.83340000
O	29.49498776	2.06812000	1.83340000
O	18.05936588	2.06812000	1.83340000
O	12.34155588	7.31164000	1.83340000
O	27.58904776	7.31164000	1.83340000
O	16.15343588	7.31164000	1.83340000
O	19.96530588	7.31164000	1.83340000
O	12.34155588	4.34349000	2.72118000
O	27.58904776	4.34349000	2.72118000
O	16.15343588	4.34349000	2.72118000
O	19.96530588	4.34349000	2.72118000
O	10.43561588	9.58701000	2.72118000
O	25.68310776	9.58701000	2.72118000
O	14.24749588	9.58701000	2.72118000
O	29.49498776	9.58701000	2.72118000
O	18.05936588	9.58701000	2.72118000
Ti	2.81187400	10.68408607	1.10336000
Ti	2.81187400	21.17113214	1.10336000
Ti	0.90594400	15.92761607	1.10336000
Ti	0.90594400	26.41466214	1.10336000
Ti	4.71781400	15.92761607	1.10336000
Ti	4.71781400	26.41466214	1.10336000
Ti	0.90594400	12.95945607	1.99114000
Ti	0.90594400	23.44650214	1.99114000
Ti	4.71781400	12.95945607	1.99114000
Ti	4.71781400	23.44650214	1.99114000
Ti	2.81187400	18.20298607	1.99115000
Ti	2.81187400	28.69003214	1.99115000
O	2.81187400	19.30006607	0.37332000
O	2.81187400	29.78711214	0.37332000
O	0.90594400	14.05653607	0.37332000
O	0.90594400	24.54358214	0.37332000
O	4.71781400	14.05653607	0.37332000
O	4.71781400	24.54358214	0.37332000
O	0.90594400	11.08838607	1.26110000
O	0.90594400	21.57543214	1.26110000
O	4.71781400	11.08838607	1.26110000
O	4.71781400	21.57543214	1.26110000
O	2.81187400	16.33190607	1.26111000
O	2.81187400	26.81895214	1.26111000
O	2.81187400	12.55516607	1.83340000
O	2.81187400	23.04221214	1.83340000
O	0.90594400	17.79868607	1.83340000
O	0.90594400	28.28573214	1.83340000
O	4.71781400	17.79868607	1.83340000
O	4.71781400	28.28573214	1.83340000
O	0.90594400	14.83053607	2.72118000
O	0.90594400	25.31758214	2.72118000
O	4.71781400	14.83053607	2.72118000
O	4.71781400	25.31758214	2.72118000
O	2.81187400	20.07405607	2.72118000
O	2.81187400	30.56110214	2.72118000
Ti	6.62374588	10.68408607	1.10336000
Ti	6.62374588	21.17113214	1.10336000
Ti	21.87123776	10.68408607	1.10336000
Ti	21.87123776	21.17113214	1.10336000
Ti	8.52968588	15.92761607	1.10336000
Ti	8.52968588	26.41466214	1.10336000
Ti	23.77717776	15.92761607	1.10336000
Ti	23.77717776	26.41466214	1.10336000
Ti	8.52968588	12.95945607	1.99114000
Ti	8.52968588	23.44650214	1.99114000
Ti	23.77717776	12.95945607	1.99114000
Ti	23.77717776	23.44650214	1.99114000
Ti	6.62374588	18.20298607	1.99115000
Ti	6.62374588	28.69003214	1.99115000
Ti	21.87123776	18.20298607	1.99115000
Ti	21.87123776	28.69003214	1.99115000
Ti	10.43561588	10.68408607	1.10336000
Ti	10.43561588	21.17113214	1.10336000
Ti	25.68310776	10.68408607	1.10336000
Ti	25.68310776	21.17113214	1.10336000
Ti	14.24749588	10.68408607	1.10336000
Ti	14.24749588	21.17113214	1.10336000
Ti	29.49498776	10.68408607	1.10336000
Ti	29.49498776	21.17113214	1.10336000
Ti	18.05936588	10.68408607	1.10336000
Ti	18.05936588	21.17113214	1.10336000
Ti	12.34155588	15.92761607	1.10336000
Ti	12.34155588	26.41466214	1.10336000
Ti	27.58904776	15.92761607	1.10336000
Ti	27.58904776	26.41466214	1.10336000
Ti	16.15343588	15.92761607	1.10336000
Ti	16.15343588	26.41466214	1.10336000
Ti	19.96530588	15.92761607	1.10336000
Ti	19.96530588	26.41466214	1.10336000
Ti	12.34155588	12.95945607	1.99114000
Ti	12.34155588	23.44650214	1.99114000
Ti	27.58904776	12.95945607	1.99114000
Ti	27.58904776	23.44650214	1.99114000
Ti	16.15343588	12.95945607	1.99114000
Ti	16.15343588	23.44650214	1.99114000
Ti	19.96530588	12.95945607	1.99114000
Ti	19.96530588	23.44650214	1.99114000
Ti	10.43561588	18.20298607	1.99115000
Ti	10.43561588	28.69003214	1.99115000
Ti	25.68310776	18.20298607	1.99115000
Ti	25.68310776	28.69003214	1.99115000
Ti	14.24749588	18.20298607	1.99115000
Ti	14.24749588	28.69003214	1.99115000
Ti	29.49498776	18.20298607	1.99115000
Ti	29.49498776	28.69003214	1.99115000
Ti	18.05936588	18.20298607	1.99115000
Ti	18.05936588	28.69003214	1.99115000
O	6.62374588	19.30006607	0.37332000
O	6.62374588	29.78711214	0.37332000
O	21.87123776	19.30006607	0.37332000
O	21.87123776	29.78711214	0.37332000
O	8.52968588	14.05653607	0.37332000
O	8.52968588	24.54358214	0.37332000
O	23.77717776	14.05653607	0.37332000
O	23.77717776	24.54358214	0.37332000
O	8.52968588	11.08838607	1.26110000
O	8.52968588	21.57543214	1.26110000
O	23.77717776	11.08838607	1.26110000
O	23.77717776	21.57543214	1.26110000
O	6.62374588	16.33190607	1.26111000
O	6.62374588	26.81895214	1.26111000
O	21.87123776	16.33190607	1.26111000
O	21.87123776	26.81895214	1.26111000
O	6.62374588	12.55516607	1.83340000
O	6.62374588	23.04221214	1.83340000
O	21.87123776	12.55516607	1.83340000
O	21.87123776	23.04221214	1.83340000
O	8.52968588	17.79868607	1.83340000
O	8.52968588	28.28573214	1.83340000
O	23.77717776	17.79868607	1.83340000
O	23.77717776	28.28573214	1.83340000
O	8.52968588	14.83053607	2.72118000
O	8.52968588	25.31758214	2.72118000
O	23.77717776	14.83053607	2.72118000
O	23.77717776	25.31758214	2.72118000
O	6.62374588	20.07405607	2.72118000
O	6.62374588	30.56110214	2.72118000
O	21.87123776	20.07405607	2.72118000
O	21.87123776	30.56110214	2.72118000
O	10.43561588	19.30006607	0.37332000
O	10.43561588	29.78711214	0.37332000
O	25.68310776	19.30006607	0.37332000
O	25.68310776	29.78711214	0.37332000
O	14.24749588	19.30006607	0.37332000
O	14.24749588	29.78711214	0.37332000
O	29.49498776	19.30006607	0.37332000
O	29.49498776	29.78711214	0.37332000
O	18.05936588	19.30006607	0.37332000
O	18.05936588	29.78711214	0.37332000
O	12.34155588	14.05653607	0.37332000
O	12.34155588	24.54358214	0.37332000
O	27.58904776	14.05653607	0.37332000
O	27.58904776	24.54358214	0.37332000
O	16.15343588	14.05653607	0.37332000
O	16.15343588	24.54358214	0.37332000
O	19.96530588	14.05653607	0.37332000
O	19.96530588	24.54358214	0.37332000
O	12.34155588	11.08838607	1.26110000
O	12.34155588	21.57543214	1.26110000
O	27.58904776	11.08838607	1.26110000
O	27.58904776	21.57543214	1.26110000
O	16.15343588	11.08838607	1.26110000
O	16.15343588	21.57543214	1.26110000
O	19.96530588	11.08838607	1.26110000
O	19.96530588	21.57543214	1.26110000
O	10.43561588	16.33190607	1.26111000
O	10.43561588	26.81895214	1.26111000
O	25.68310776	16.33190607	1.26111000
O	25.68310776	26.81895214	1.26111000
O	14.24749588	16.33190607	1.26111000
O	14.24749588	26.81895214	1.26111000
O	29.49498776	16.33190607	1.26111000
O	29.49498776	26.81895214	1.26111000
O	18.05936588	16.33190607	1.26111000
O	18.05936588	26.81895214	1.26111000
O	10.43561588	12.55516607	1.83340000
O	10.43561588	23.04221214	1.83340000
O	25.68310776	12.55516607	1.83340000
O	25.68310776	23.04221214	1.83340000
O	14.24749588	12.55516607	1.83340000
O	14.24749588	23.04221214	1.83340000
O	29.49498776	12.55516607	1.83340000
O	29.49498776	23.04221214	1.83340000
O	18.05936588	12.55516607	1.83340000
O	18.05936588	23.04221214	1.83340000
O	12.34155588	17.79868607	1.83340000
O	12.34155588	28.28573214	1.83340000
O	27.58904776	17.79868607	1.83340000
O	27.58904776	28.28573214	1.83340000
O	16.15343588	17.79868607	1.83340000
O	16.15343588	28.28573214	1.83340000
O	19.96530588	17.79868607	1.83340000
O	19.96530588	28.28573214	1.83340000
O	12.34155588	14.83053607	2.72118000
O	12.34155588	25.31758214	2.72118000
O	27.58904776	14.83053607	2.72118000
O	27.58904776	25.31758214	2.72118000
O	16.15343588	14.83053607	2.72118000
O	16.15343588	25.31758214	2.72118000
O	19.96530588	14.83053607	2.72118000
O	19.96530588	25.31758214	2.72118000
O	10.43561588	20.07405607	2.72118000
O	10.43561588	30.56110214	2.72118000
O	25.68310776	20.07405607	2.72118000
O	25.68310776	30.56110214	2.72118000
O	14.24749588	20.07405607	2.72118000
O	14.24749588	30.56110214	2.72118000
O	29.49498776	20.07405607	2.72118000
O	29.49498776	30.56110214	2.72118000
O	18.05936588	20.07405607	2.72118000
O	18.05936588	30.56110214	2.72118000
Ti	6.62173092	9.20010304	4.80901538
Ti	6.65892534	6.29552779	5.53948973
Ti	2.77056000	9.17631311	4.62529571
Ti	0.84005623	4.02211325	4.83688004
Ti	4.65190401	3.96378297	4.74886975
Ti	0.83889313	1.06959419	5.45933933
Ti	4.79254803	1.02911602	5.40964194
Ti	2.78963732	6.35379993	5.54045746
O	6.51704437	7.34117793	3.93632644
O	6.63036314	4.39626491	4.81281940
O	6.60643511	0.51842390	5.77618981
O	6.58863873	8.10738898	6.38411454
O	2.79926635	7.29347965	3.95351877
O	0.69524831	2.20472202	3.94333208
O	4.95989677	2.05905581	3.92571286
O	0.91598410	9.56722794	4.91924443
O	4.71665459	9.51249777	4.77157125
O	2.76316421	4.43148928	4.88155248
O	2.83317567	0.51656005	5.65003372
O	0.83852630	5.91852951	5.80199290
O	4.66571014	5.70652545	5.85309024
O	0.80083232	2.78090578	6.26945410
O	4.62329776	2.70117609	6.26106403
O	2.93172012	8.12460937	6.32830961
Ti	21.85205803	9.32411752	4.81347887
Ti	8.55670895	3.87371616	4.75916840
Ti	23.67835337	4.09778283	4.76788458
Ti	8.55985824	0.96912136	5.46262483
Ti	23.67825107	1.21110793	5.54077972
Ti	21.78895649	6.36073303	5.45704586
Ti	10.37973576	9.27379474	4.73761361
Ti	25.73978847	9.25621325	4.76714038
Ti	14.29968567	9.27165590	4.90616204
Ti	29.46855808	9.14937724	4.80830176
Ti	18.06691967	9.21290117	4.73381360
Ti	12.38306740	4.11943601	4.77149136
Ti	27.53264791	3.96048192	4.73411513
Ti	16.13367412	4.01697811	4.77125608
Ti	19.97807073	3.99412128	4.77869187
Ti	12.49388749	1.25131163	5.68087379
Ti	27.57348264	1.02303220	5.39970230
Ti	16.17866618	1.14816397	5.59757664
Ti	19.89385656	1.10042291	5.52980211
Ti	10.33790418	6.29276984	5.39034119
Ti	25.71299854	6.40405761	5.57463969
Ti	14.22237843	6.35715227	5.65761808
Ti	29.46277703	6.27752420	5.54414041
Ti	17.96788104	6.33050740	5.51744467
O	21.76569209	7.39969035	3.95100231
O	8.72527174	1.98922427	3.94750334
O	23.85402826	2.16610222	4.00012042
O	8.56479081	9.67631318	4.83939284
O	23.85762816	9.56722445	4.89302973
O	21.79618783	4.48516300	4.71666118
O	21.82212318	0.74072311	5.78795393
O	8.52175305	5.75728599	5.72964514
O	23.74659920	5.96833140	5.57360475
O	8.63193628	2.73192960	6.40214778
O	23.50855389	3.02085199	6.36100939
O	21.85583812	8.02518269	6.36384607
O	10.43331669	7.40417678	3.87496162
O	25.76645013	7.30323046	3.91351571
O	14.14942094	7.40010075	3.97933082
O	29.30768055	7.31809104	3.95716000
O	18.00787926	7.36689316	3.95495881
O	12.41547085	2.28096625	4.07636449
O	27.62863753	2.06391027	3.90479200
O	16.15738151	2.12380706	3.98231784
O	19.94139934	2.16434329	4.04454927
O	12.36906879	9.72050839	4.78845334
O	27.64587534	9.64069362	4.62050843
O	16.20480801	9.71188624	4.86613030
O	19.98002044	9.73259650	4.66085884
O	10.42015505	4.40336941	4.69389923
O	25.59839811	4.42123971	4.99753481
O	14.24213749	4.58587194	4.78643266
O	29.43976490	4.43059192	4.72215096
O	18.04495048	4.43316839	4.81120952
O	10.58359429	0.67509746	5.65155142
O	25.57852152	0.65217439	5.79570211
O	14.28102829	1.09358695	6.18916114
O	29.48832576	0.57133462	5.73845910
O	18.01112848	0.55302102	5.97107561
O	12.31981528	5.87787046	5.89533684
O	27.48636707	5.77010706	5.79175676
O	16.16726683	5.81820196	5.72973817
O	19.88599388	5.86880426	5.78456822
O	12.26083841	3.11124112	6.39014702
O	27.65418696	2.61313175	6.39121405
O	16.25732469	2.91778049	6.38846370
O	19.94645112	2.87739000	6.35902595
O	10.47056584	8.05324596	6.19973510
O	25.67948472	8.15290851	6.36462451
O	14.16352198	8.12586975	6.44664852
O	29.55476552	8.01340822	6.45377741
O	18.03873515	8.09635026	6.32878332
Ti	6.59826518	19.68514527	4.74779421
Ti	6.63111422	30.18505498	4.82498529
Ti	6.62489439	16.70551786	5.58360262
Ti	6.55758360	27.31148633	5.52554814
Ti	2.86665180	19.73723868	4.80378665
Ti	2.69864715	30.17165064	4.79798236
Ti	1.00183560	14.27205018	4.64762568
Ti	0.89457192	25.02070790	4.84807506
Ti	4.66059315	14.54135506	4.76926259
Ti	4.72361406	24.94606058	4.79744732
Ti	1.03169382	11.42928602	5.54612646
Ti	0.92327030	22.11983988	5.57211907
Ti	4.83871898	11.51597960	5.51114213
Ti	4.81181183	22.09213528	5.55510574
Ti	2.86696509	16.91308227	5.75050367
Ti	2.87333796	27.20002694	5.53506179
O	6.65663541	17.82981969	4.00925434
O	6.55535875	28.39775357	3.95539114
O	6.62245930	14.96794238	4.67637149
O	6.67347789	25.48762964	4.66296069
O	6.62395316	10.94789500	5.80518314
O	6.65757368	21.56029238	5.98729193
O	6.49332388	18.43219948	6.40670179
O	6.48475477	29.03371033	6.34123565
O	2.79445874	17.81014456	4.04653639
O	2.82640985	28.28625640	4.01021247
O	0.98238107	12.43985338	3.89380192
O	0.89892199	23.17880442	3.99041711
O	4.71521951	12.53625291	3.97612596
O	4.85982727	23.10343806	3.96869548
O	0.91225761	20.15800860	4.90669882
O	0.81306542	30.55079651	4.95399670
O	4.73700441	20.19345408	4.72354577
O	4.66173021	30.50132567	4.83782811
O	2.82577160	14.97779015	4.84559130
O	2.87063668	25.32035975	4.80022120
O	2.94287391	11.06512808	5.79305725
O	2.87256825	21.57835981	5.63848095
O	0.98402443	16.76993183	6.06404484
O	0.91804947	26.79936772	5.72777317
O	4.78681442	16.23358811	5.94922893
O	4.69248224	26.71854252	5.85245028
O	1.09224586	13.24590011	6.30287532
O	0.93697136	23.74367631	6.56004622
O	4.94444332	13.30559369	6.35528221
O	4.61332268	23.80094170	6.39374884
O	3.16698386	18.74825999	6.42043673
O	2.97129877	28.86283272	6.44404998
Ti	22.00333697	19.70365921	4.74315680
Ti	21.86694321	30.22462809	4.67075641
Ti	8.47048468	14.40503564	4.74367462
Ti	8.47113401	24.92947134	4.74625710
Ti	23.76619922	14.47594782	4.69279548
Ti	23.86788763	24.91402851	4.64918682
Ti	8.55750670	11.53266609	5.51331365
Ti	8.52300570	22.08575786	5.48966671
Ti	23.78747563	11.53727415	5.49398127
Ti	23.79337031	22.05431780	5.53601323
Ti	22.00082125	16.82275893	5.54035244
Ti	22.00165997	27.36241882	5.52888707
Ti	10.35712931	19.77498246	4.73063164
Ti	10.52229326	30.28586627	4.72324051
Ti	25.77056153	19.70498743	4.80011332
Ti	25.56486507	30.37800590	4.69847055
Ti	14.20082460	19.69911513	4.70974883
Ti	14.28028845	30.10575543	4.66067069
Ti	29.52805565	19.70506266	4.79510583
Ti	29.36789008	30.21720270	4.72979379
Ti	18.07746302	19.68205597	4.70856993
Ti	18.03414701	30.28429213	4.94220920
Ti	12.32273676	14.50374397	4.73573068
Ti	12.27414698	24.99071504	4.72167328
Ti	27.84784470	14.47688909	4.71792475
Ti	27.63742243	24.95786812	4.69370026
Ti	16.11805334	14.44754996	4.72499322
Ti	16.22837668	24.97581077	4.76880333
Ti	20.01728348	14.48057983	4.70898302
Ti	20.05005179	24.98540063	4.80587013
Ti	12.42021791	11.56351573	5.57184873
Ti	12.27823925	22.05078012	5.58104078
Ti	27.72806359	11.53911060	5.43044007
Ti	27.63209070	22.05524226	5.46457512
Ti	16.16607702	11.54009110	5.57626851
Ti	16.14295190	22.02123397	5.50331277
Ti	19.97712358	11.65298257	5.46157096
Ti	20.03307720	22.05201427	5.35826943
Ti	10.33062428	16.81707846	5.44719904
Ti	10.46960610	27.31852297	5.51359350
Ti	25.65623461	16.71624090	5.54209432
Ti	25.70114505	27.40852722	5.42315856
Ti	14.18568405	16.80499634	5.78290027
Ti	14.32510915	27.26846487	5.54474673
Ti	29.60615629	16.78478580	5.57222629
Ti	29.52032467	27.29729631	5.55749929
Ti	18.12638053	16.85132087	5.52669799
Ti	18.18964741	27.26667157	5.44925624
O	22.04506592	17.87143349	3.97889319
O	21.97823381	28.37837192	3.85331113
O	8.36670181	12.57366731	3.93785183
O	8.63170984	23.07161878	3.92402952
O	23.75884042	12.47933629	3.86995242
O	23.67584311	23.10740534	3.93594945
O	8.47094215	20.23291749	4.74233003
O	8.50513794	30.56672576	4.93230367
O	23.86392371	20.20633682	4.64522915
O	23.68845858	30.79120197	4.68540088
O	21.92606604	14.92206636	4.61575355
O	22.00897026	25.39439786	5.05639253
O	21.85383402	11.12175726	5.78067489
O	21.93021646	21.44981893	5.92948323
O	8.51732086	16.28818247	5.90129205
O	8.48823419	26.88676858	5.89536493
O	23.81156081	16.24268801	5.90126804
O	23.94025311	26.80842043	5.84254265
O	8.57475267	13.25240632	6.37403043
O	8.50469348	23.84625145	6.37610678
O	23.77119290	13.35354655	6.36067142
O	23.81171172	23.76366273	6.25464516
O	21.92390339	18.55278410	6.38432311
O	21.90378812	29.17240053	6.27475976
O	10.37444129	17.92433944	3.91737662
O	10.26710546	28.24318228	3.93901699
O	25.65366351	17.87080848	3.97710935
O	25.62699046	28.37373683	3.92134146
O	14.30481032	17.78008489	4.05349660
O	14.28767630	28.32382095	3.90010865
O	29.67497666	17.84256454	3.92268707
O	29.36041401	28.34092039	3.94669976
O	18.03179583	17.90205693	3.90742467
O	17.97443008	28.38831540	3.92756989
O	12.28345667	12.65049993	3.98832146
O	12.18234566	23.02348478	3.94431040
O	27.63104136	12.55626868	3.88594661
O	27.64680752	23.03315141	3.84631011
O	16.13860637	12.54712831	3.96128252
O	16.12188016	23.07065235	3.93058982
O	20.15654143	12.55028669	3.90714825
O	20.04100746	23.13890674	3.88304643
O	12.25761095	20.12647836	4.72271149
O	12.47240609	30.77920426	4.81717217
O	27.67463730	20.17094913	5.01566404
O	27.48810019	30.66013178	4.71150503
O	16.09145800	20.02989967	4.82073566
O	16.09943271	30.68729878	4.89596659
O	20.03307521	20.12100241	4.68360404
O	20.02798526	30.61071155	5.03547888
O	10.31003480	14.93074944	4.65685083
O	10.39174828	25.42206447	4.90705672
O	25.74661761	14.80096691	5.00350359
O	25.74806662	25.49546987	4.64080728
O	14.21299083	14.84277640	4.90116045
O	14.26185975	25.44391992	4.73819161
O	29.75274418	14.95097863	4.91054929
O	29.52608235	25.34548255	4.73569278
O	18.09422998	14.79485590	4.75321742
O	18.14872525	25.47040059	4.63041309
O	10.51513672	11.09055962	5.83290762
O	10.41381480	21.64730478	5.79777655
O	25.77985509	11.01152133	5.73512650
O	25.72946324	21.59545519	5.72186166
O	14.29598892	11.09049780	5.97664912
O	14.26492483	21.45838556	5.74760544
O	29.55415022	11.01427307	5.86232900
O	29.59420920	21.60913163	5.74796681
O	18.08364204	11.06630163	5.82145523
O	18.11920330	21.69496556	5.39533716
O	12.17117086	16.38245736	5.65374840
O	12.35974135	26.80989045	5.54418274
O	27.63823706	16.25287900	5.64552744
O	27.58590223	26.87083582	5.74064965
O	16.25531718	16.28727172	5.66966928
O	16.28322112	26.87328078	5.74477979
O	19.98248047	16.32758392	5.73434714
O	20.03686920	26.85977747	5.59752854
O	12.45908715	13.28637333	6.39844985
O	12.48254674	23.80426710	6.27592162
O	27.69174347	13.24022564	6.28781754
O	27.41782453	23.84897748	6.25586468
O	16.03568104	13.33405586	6.35570379
O	16.33930277	23.87186909	6.29636659
O	19.96696086	13.36070764	6.36027063
O	19.91001430	23.73794612	6.34130752
O	10.35560156	18.53305744	6.30000411
O	10.67615242	29.02452732	6.32643574
O	25.74644821	18.48950700	6.40379286
O	25.64343814	29.17919540	6.19617115
O	14.13946780	18.64475704	6.41487687
O	14.16496375	29.09466005	6.42591655
O	29.48264166	18.59004384	6.35157486
O	29.31804399	29.04108439	6.35974983
O	17.94474836	18.49181672	6.42119352
O	18.05655404	29.05229948	6.43564129
H	13.74193656	13.87267096	7.89416259
H	14.34302437	14.24010499	11.34165456
H	15.01656859	17.98895986	9.17547454
O	14.17095244	16.09155979	7.69717735
O	14.02196540	14.12664442	8.80038812
C	14.20661179	15.38655546	8.83579384
C	14.54631363	16.02334542	10.08044935
C	14.41705502	15.32249905	11.24454267
C	14.81472052	17.40832760	10.10256500
N	12.87069995	19.49034816	15.33920867
N	15.64261355	21.99660755	17.19738691
N	15.69587285	20.11049197	14.96677357
N	12.72378586	21.62148199	17.45571484
C	21.23108461	20.34111751	16.02410136
C	14.33015580	25.27388239	21.98988853
C	7.12375693	19.94128507	16.28133371
C	19.14786607	21.58175275	15.79106247
C	14.07588290	24.28899592	19.73263394
C	9.42401821	19.82016037	17.01673395
C	21.27231492	22.53435247	15.04493014
C	13.47200137	26.64180884	20.16021568
C	7.70447580	18.90300826	18.41527381
C	14.34248479	18.36687275	13.67134106
C	17.65274172	21.36408011	15.95051150
C	14.08821887	23.11129739	18.84805708
C	10.83418238	20.07316626	16.73176032
C	15.48924629	19.19134425	13.95419990
C	17.00733033	20.50210052	15.01175851
C	12.85085707	22.49786708	18.52722945
C	11.43060584	21.21590724	17.33140563
C	16.79336215	18.99429551	13.39460618
C	17.63712902	19.90652603	13.88801883
C	11.57488046	22.73278135	18.99095097
C	10.66403673	22.00016499	18.27995613
C	13.10704241	18.48833473	14.42584669
C	16.99337659	22.14865596	16.90989575
C	15.33798432	22.86808034	18.22040832
C	11.54100193	19.27351714	15.75894862
C	11.94313731	17.67691237	14.16559322
C	17.59762117	23.00300119	17.87912104
C	16.57561631	23.49622470	18.65822984
C	10.97461948	18.17504200	15.04940466
H	11.84127116	16.88087506	13.39092001
H	18.65439931	23.32686454	18.06180802
H	16.64935012	24.17534326	19.52985900
H	9.93604762	17.87162801	15.18431020
H	17.12148134	18.21338448	12.68057603
H	18.69789527	20.06589442	13.63107440
H	11.30631215	23.41737995	19.75541509
H	9.59428179	22.03636201	18.35366717
H	21.71549557	23.45546062	14.63773009
H	13.06837774	27.56705663	19.75561436
H	7.42799715	18.44907155	19.37659027
H	21.83621762	19.54786636	16.51759534
H	14.55817322	25.11399068	23.08648253
H	6.45327825	20.18557517	15.47861499
H	14.94039256	20.35568088	15.66187207
H	13.51785566	21.22149218	16.90991316
C	23.48104404	21.37048617	15.33332240
H	23.85511367	20.44904742	15.74717605
H	23.99003391	22.26588650	15.84397295
H	23.71902678	21.39191647	14.26101020
C	19.19050856	19.36270226	16.98864248
H	19.64147116	18.37927406	16.81023814
H	18.09253326	19.35411314	16.98000961
H	19.36382128	19.59552652	18.03550868
C	19.11711366	23.78456052	14.57922452
H	19.67348878	24.68557547	14.91279600
H	18.02039846	23.82423157	14.92786268
H	19.29848643	23.71622750	13.48483238
C	10.12346909	18.89337052	19.23757182
H	10.99420366	19.56073311	19.17350337
H	10.39106363	17.82128595	19.12212176
H	9.73082421	18.99007456	20.20105428
C	8.86778544	21.07138157	14.82078846
H	9.29874434	22.01101159	15.12244900
H	7.93718560	21.28986609	14.27421313
H	9.46145104	20.50122093	14.12912264
C	5.31693682	19.08205381	17.69163668
H	5.01082598	19.66567261	18.59782524
H	5.14510601	17.99057948	17.79901640
H	4.59444707	19.36477169	16.92214209
C	13.24321418	25.71313424	17.80553639
H	12.16634071	25.50772720	17.74769687
H	13.76834296	24.99742361	17.18204502
H	13.44728371	26.80206775	17.47065142
C	14.74898966	22.82020523	21.71359889
H	15.58103532	22.35899899	21.18462502
H	13.97392908	22.13895616	21.44259404
H	14.97199761	22.82091648	22.83306801
C	13.50846847	27.54305823	22.48306112
H	14.17405302	28.40600551	22.20784494
H	13.68006561	27.31389963	23.54034955
H	12.44670435	27.90627961	22.37638988
C	21.98461238	21.39529498	15.50533144
C	19.87384117	20.44875910	16.22342703
C	19.88091389	22.63312715	15.16371296
C	13.63708964	25.56536876	19.24243389
C	14.37242982	24.18779090	21.10701173
C	13.77942323	26.47243410	21.48411755
C	9.06574258	19.20777867	18.27811765
C	8.48317301	20.22497720	16.06048893
C	6.74928693	19.28565365	17.45106830
H	14.01481905	15.54228151	13.37573085
H	15.04327636	19.22952989	11.21972135
C	14.49269355	17.48964129	12.49077785
C	14.33093764	16.07415082	12.43857196
C	14.86565177	18.13940054	11.24868403

Ti O H C N 0
6-31G*
****

