%chk=f00019091.chk
%mem=24GB
%nproc=12
#p b3lyp/6-31G*

title

0 1
Ti	2.81187400	0.19704000	1.10336000
Ti	0.90594400	5.44057000	1.10336000
Ti	4.71781400	5.44057000	1.10336000
Ti	0.90594400	2.47241000	1.99114000
Ti	4.71781400	2.47241000	1.99114000
Ti	2.81187400	7.71594000	1.99115000
O	2.81187400	8.81302000	0.37332000
O	0.90594400	3.56949000	0.37332000
O	4.71781400	3.56949000	0.37332000
O	0.90594400	0.60134000	1.26110000
O	4.71781400	0.60134000	1.26110000
O	2.81187400	5.84486000	1.26111000
O	2.81187400	2.06812000	1.83340000
O	0.90594400	7.31164000	1.83340000
O	4.71781400	7.31164000	1.83340000
O	0.90594400	4.34349000	2.72118000
O	4.71781400	4.34349000	2.72118000
O	2.81187400	9.58701000	2.72118000
Ti	6.62374588	0.19704000	1.10336000
Ti	21.87123776	0.19704000	1.10336000
Ti	8.52968588	5.44057000	1.10336000
Ti	23.77717776	5.44057000	1.10336000
Ti	8.52968588	2.47241000	1.99114000
Ti	23.77717776	2.47241000	1.99114000
Ti	6.62374588	7.71594000	1.99115000
Ti	21.87123776	7.71594000	1.99115000
Ti	10.43561588	0.19704000	1.10336000
Ti	25.68310776	0.19704000	1.10336000
Ti	14.24749588	0.19704000	1.10336000
Ti	29.49498776	0.19704000	1.10336000
Ti	18.05936588	0.19704000	1.10336000
Ti	12.34155588	5.44057000	1.10336000
Ti	27.58904776	5.44057000	1.10336000
Ti	16.15343588	5.44057000	1.10336000
Ti	19.96530588	5.44057000	1.10336000
Ti	12.34155588	2.47241000	1.99114000
Ti	27.58904776	2.47241000	1.99114000
Ti	16.15343588	2.47241000	1.99114000
Ti	19.96530588	2.47241000	1.99114000
Ti	10.43561588	7.71594000	1.99115000
Ti	25.68310776	7.71594000	1.99115000
Ti	14.24749588	7.71594000	1.99115000
Ti	29.49498776	7.71594000	1.99115000
Ti	18.05936588	7.71594000	1.99115000
O	6.62374588	8.81302000	0.37332000
O	21.87123776	8.81302000	0.37332000
O	8.52968588	3.56949000	0.37332000
O	23.77717776	3.56949000	0.37332000
O	8.52968588	0.60134000	1.26110000
O	23.77717776	0.60134000	1.26110000
O	6.62374588	5.84486000	1.26111000
O	21.87123776	5.84486000	1.26111000
O	6.62374588	2.06812000	1.83340000
O	21.87123776	2.06812000	1.83340000
O	8.52968588	7.31164000	1.83340000
O	23.77717776	7.31164000	1.83340000
O	8.52968588	4.34349000	2.72118000
O	23.77717776	4.34349000	2.72118000
O	6.62374588	9.58701000	2.72118000
O	21.87123776	9.58701000	2.72118000
O	10.43561588	8.81302000	0.37332000
O	25.68310776	8.81302000	0.37332000
O	14.24749588	8.81302000	0.37332000
O	29.49498776	8.81302000	0.37332000
O	18.05936588	8.81302000	0.37332000
O	12.34155588	3.56949000	0.37332000
O	27.58904776	3.56949000	0.37332000
O	16.15343588	3.56949000	0.37332000
O	19.96530588	3.56949000	0.37332000
O	12.34155588	0.60134000	1.26110000
O	27.58904776	0.60134000	1.26110000
O	16.15343588	0.60134000	1.26110000
O	19.96530588	0.60134000	1.26110000
O	10.43561588	5.84486000	1.26111000
O	25.68310776	5.84486000	1.26111000
O	14.24749588	5.84486000	1.26111000
O	29.49498776	5.84486000	1.26111000
O	18.05936588	5.84486000	1.26111000
O	10.43561588	2.06812000	1.83340000
O	25.68310776	2.06812000	1.83340000
O	14.24749588	2.06812000	1.83340000
O	29.49498776	2.06812000	1.83340000
O	18.05936588	2.06812000	1.83340000
O	12.34155588	7.31164000	1.83340000
O	27.58904776	7.31164000	1.83340000
O	16.15343588	7.31164000	1.83340000
O	19.96530588	7.31164000	1.83340000
O	12.34155588	4.34349000	2.72118000
O	27.58904776	4.34349000	2.72118000
O	16.15343588	4.34349000	2.72118000
O	19.96530588	4.34349000	2.72118000
O	10.43561588	9.58701000	2.72118000
O	25.68310776	9.58701000	2.72118000
O	14.24749588	9.58701000	2.72118000
O	29.49498776	9.58701000	2.72118000
O	18.05936588	9.58701000	2.72118000
Ti	2.81187400	10.68408607	1.10336000
Ti	2.81187400	21.17113214	1.10336000
Ti	0.90594400	15.92761607	1.10336000
Ti	0.90594400	26.41466214	1.10336000
Ti	4.71781400	15.92761607	1.10336000
Ti	4.71781400	26.41466214	1.10336000
Ti	0.90594400	12.95945607	1.99114000
Ti	0.90594400	23.44650214	1.99114000
Ti	4.71781400	12.95945607	1.99114000
Ti	4.71781400	23.44650214	1.99114000
Ti	2.81187400	18.20298607	1.99115000
Ti	2.81187400	28.69003214	1.99115000
O	2.81187400	19.30006607	0.37332000
O	2.81187400	29.78711214	0.37332000
O	0.90594400	14.05653607	0.37332000
O	0.90594400	24.54358214	0.37332000
O	4.71781400	14.05653607	0.37332000
O	4.71781400	24.54358214	0.37332000
O	0.90594400	11.08838607	1.26110000
O	0.90594400	21.57543214	1.26110000
O	4.71781400	11.08838607	1.26110000
O	4.71781400	21.57543214	1.26110000
O	2.81187400	16.33190607	1.26111000
O	2.81187400	26.81895214	1.26111000
O	2.81187400	12.55516607	1.83340000
O	2.81187400	23.04221214	1.83340000
O	0.90594400	17.79868607	1.83340000
O	0.90594400	28.28573214	1.83340000
O	4.71781400	17.79868607	1.83340000
O	4.71781400	28.28573214	1.83340000
O	0.90594400	14.83053607	2.72118000
O	0.90594400	25.31758214	2.72118000
O	4.71781400	14.83053607	2.72118000
O	4.71781400	25.31758214	2.72118000
O	2.81187400	20.07405607	2.72118000
O	2.81187400	30.56110214	2.72118000
Ti	6.62374588	10.68408607	1.10336000
Ti	6.62374588	21.17113214	1.10336000
Ti	21.87123776	10.68408607	1.10336000
Ti	21.87123776	21.17113214	1.10336000
Ti	8.52968588	15.92761607	1.10336000
Ti	8.52968588	26.41466214	1.10336000
Ti	23.77717776	15.92761607	1.10336000
Ti	23.77717776	26.41466214	1.10336000
Ti	8.52968588	12.95945607	1.99114000
Ti	8.52968588	23.44650214	1.99114000
Ti	23.77717776	12.95945607	1.99114000
Ti	23.77717776	23.44650214	1.99114000
Ti	6.62374588	18.20298607	1.99115000
Ti	6.62374588	28.69003214	1.99115000
Ti	21.87123776	18.20298607	1.99115000
Ti	21.87123776	28.69003214	1.99115000
Ti	10.43561588	10.68408607	1.10336000
Ti	10.43561588	21.17113214	1.10336000
Ti	25.68310776	10.68408607	1.10336000
Ti	25.68310776	21.17113214	1.10336000
Ti	14.24749588	10.68408607	1.10336000
Ti	14.24749588	21.17113214	1.10336000
Ti	29.49498776	10.68408607	1.10336000
Ti	29.49498776	21.17113214	1.10336000
Ti	18.05936588	10.68408607	1.10336000
Ti	18.05936588	21.17113214	1.10336000
Ti	12.34155588	15.92761607	1.10336000
Ti	12.34155588	26.41466214	1.10336000
Ti	27.58904776	15.92761607	1.10336000
Ti	27.58904776	26.41466214	1.10336000
Ti	16.15343588	15.92761607	1.10336000
Ti	16.15343588	26.41466214	1.10336000
Ti	19.96530588	15.92761607	1.10336000
Ti	19.96530588	26.41466214	1.10336000
Ti	12.34155588	12.95945607	1.99114000
Ti	12.34155588	23.44650214	1.99114000
Ti	27.58904776	12.95945607	1.99114000
Ti	27.58904776	23.44650214	1.99114000
Ti	16.15343588	12.95945607	1.99114000
Ti	16.15343588	23.44650214	1.99114000
Ti	19.96530588	12.95945607	1.99114000
Ti	19.96530588	23.44650214	1.99114000
Ti	10.43561588	18.20298607	1.99115000
Ti	10.43561588	28.69003214	1.99115000
Ti	25.68310776	18.20298607	1.99115000
Ti	25.68310776	28.69003214	1.99115000
Ti	14.24749588	18.20298607	1.99115000
Ti	14.24749588	28.69003214	1.99115000
Ti	29.49498776	18.20298607	1.99115000
Ti	29.49498776	28.69003214	1.99115000
Ti	18.05936588	18.20298607	1.99115000
Ti	18.05936588	28.69003214	1.99115000
O	6.62374588	19.30006607	0.37332000
O	6.62374588	29.78711214	0.37332000
O	21.87123776	19.30006607	0.37332000
O	21.87123776	29.78711214	0.37332000
O	8.52968588	14.05653607	0.37332000
O	8.52968588	24.54358214	0.37332000
O	23.77717776	14.05653607	0.37332000
O	23.77717776	24.54358214	0.37332000
O	8.52968588	11.08838607	1.26110000
O	8.52968588	21.57543214	1.26110000
O	23.77717776	11.08838607	1.26110000
O	23.77717776	21.57543214	1.26110000
O	6.62374588	16.33190607	1.26111000
O	6.62374588	26.81895214	1.26111000
O	21.87123776	16.33190607	1.26111000
O	21.87123776	26.81895214	1.26111000
O	6.62374588	12.55516607	1.83340000
O	6.62374588	23.04221214	1.83340000
O	21.87123776	12.55516607	1.83340000
O	21.87123776	23.04221214	1.83340000
O	8.52968588	17.79868607	1.83340000
O	8.52968588	28.28573214	1.83340000
O	23.77717776	17.79868607	1.83340000
O	23.77717776	28.28573214	1.83340000
O	8.52968588	14.83053607	2.72118000
O	8.52968588	25.31758214	2.72118000
O	23.77717776	14.83053607	2.72118000
O	23.77717776	25.31758214	2.72118000
O	6.62374588	20.07405607	2.72118000
O	6.62374588	30.56110214	2.72118000
O	21.87123776	20.07405607	2.72118000
O	21.87123776	30.56110214	2.72118000
O	10.43561588	19.30006607	0.37332000
O	10.43561588	29.78711214	0.37332000
O	25.68310776	19.30006607	0.37332000
O	25.68310776	29.78711214	0.37332000
O	14.24749588	19.30006607	0.37332000
O	14.24749588	29.78711214	0.37332000
O	29.49498776	19.30006607	0.37332000
O	29.49498776	29.78711214	0.37332000
O	18.05936588	19.30006607	0.37332000
O	18.05936588	29.78711214	0.37332000
O	12.34155588	14.05653607	0.37332000
O	12.34155588	24.54358214	0.37332000
O	27.58904776	14.05653607	0.37332000
O	27.58904776	24.54358214	0.37332000
O	16.15343588	14.05653607	0.37332000
O	16.15343588	24.54358214	0.37332000
O	19.96530588	14.05653607	0.37332000
O	19.96530588	24.54358214	0.37332000
O	12.34155588	11.08838607	1.26110000
O	12.34155588	21.57543214	1.26110000
O	27.58904776	11.08838607	1.26110000
O	27.58904776	21.57543214	1.26110000
O	16.15343588	11.08838607	1.26110000
O	16.15343588	21.57543214	1.26110000
O	19.96530588	11.08838607	1.26110000
O	19.96530588	21.57543214	1.26110000
O	10.43561588	16.33190607	1.26111000
O	10.43561588	26.81895214	1.26111000
O	25.68310776	16.33190607	1.26111000
O	25.68310776	26.81895214	1.26111000
O	14.24749588	16.33190607	1.26111000
O	14.24749588	26.81895214	1.26111000
O	29.49498776	16.33190607	1.26111000
O	29.49498776	26.81895214	1.26111000
O	18.05936588	16.33190607	1.26111000
O	18.05936588	26.81895214	1.26111000
O	10.43561588	12.55516607	1.83340000
O	10.43561588	23.04221214	1.83340000
O	25.68310776	12.55516607	1.83340000
O	25.68310776	23.04221214	1.83340000
O	14.24749588	12.55516607	1.83340000
O	14.24749588	23.04221214	1.83340000
O	29.49498776	12.55516607	1.83340000
O	29.49498776	23.04221214	1.83340000
O	18.05936588	12.55516607	1.83340000
O	18.05936588	23.04221214	1.83340000
O	12.34155588	17.79868607	1.83340000
O	12.34155588	28.28573214	1.83340000
O	27.58904776	17.79868607	1.83340000
O	27.58904776	28.28573214	1.83340000
O	16.15343588	17.79868607	1.83340000
O	16.15343588	28.28573214	1.83340000
O	19.96530588	17.79868607	1.83340000
O	19.96530588	28.28573214	1.83340000
O	12.34155588	14.83053607	2.72118000
O	12.34155588	25.31758214	2.72118000
O	27.58904776	14.83053607	2.72118000
O	27.58904776	25.31758214	2.72118000
O	16.15343588	14.83053607	2.72118000
O	16.15343588	25.31758214	2.72118000
O	19.96530588	14.83053607	2.72118000
O	19.96530588	25.31758214	2.72118000
O	10.43561588	20.07405607	2.72118000
O	10.43561588	30.56110214	2.72118000
O	25.68310776	20.07405607	2.72118000
O	25.68310776	30.56110214	2.72118000
O	14.24749588	20.07405607	2.72118000
O	14.24749588	30.56110214	2.72118000
O	29.49498776	20.07405607	2.72118000
O	29.49498776	30.56110214	2.72118000
O	18.05936588	20.07405607	2.72118000
O	18.05936588	30.56110214	2.72118000
Ti	6.59120962	9.29583121	4.82292610
Ti	6.65927903	6.30775145	5.51166053
Ti	2.83712838	9.25458895	4.68702769
Ti	1.03800597	4.00501287	4.80579247
Ti	4.78249451	4.06332790	4.77164800
Ti	0.93393367	1.12292872	5.45960943
Ti	4.77582442	1.13195159	5.48022982
Ti	2.79833310	6.35033155	5.57354923
O	6.61959703	7.41353016	3.98009538
O	6.62491556	4.50736653	4.78854957
O	6.68806609	0.61676586	5.76541052
O	6.72726093	8.18102362	6.45674507
O	2.96987078	7.43042051	3.92088436
O	0.98143163	2.13299998	3.95368571
O	4.71223963	2.08590608	3.98530422
O	0.83299776	9.56069019	4.73840773
O	4.74722383	9.76844603	4.64698031
O	2.84038970	4.52797144	4.81142059
O	2.90010908	0.56956758	5.70223806
O	0.81424264	6.04157357	5.84340593
O	4.74567023	5.87843487	5.82526174
O	0.98656814	2.78918709	6.39212466
O	5.04511334	2.82200605	6.32249234
O	2.80338494	8.16504576	6.30143293
Ti	21.97871353	9.16193861	4.78447850
Ti	8.47246356	4.03528225	4.75722713
Ti	23.78842634	3.94528966	4.83188300
Ti	8.56980908	1.13699928	5.53436139
Ti	23.70681289	1.01859087	5.49817417
Ti	21.89341294	6.21442173	5.48786861
Ti	10.50580593	9.31186991	4.79298612
Ti	25.63315294	9.13186712	4.69350934
Ti	14.27039154	9.27589306	4.97382702
Ti	29.40409473	9.18890476	4.72837353
Ti	18.09933947	9.07443856	4.73602990
Ti	12.30637820	4.02525060	4.70760896
Ti	27.69991386	3.95845016	4.84464608
Ti	16.18636161	4.00142208	4.72645779
Ti	19.92540481	3.87020564	4.73416643
Ti	12.40824641	1.20031419	5.70733130
Ti	27.53661070	0.91280193	5.44060117
Ti	16.20088528	1.21180187	5.65469182
Ti	19.89767803	0.97215074	5.50610488
Ti	10.38152942	6.41923201	5.60169332
Ti	25.74231034	6.21072920	5.46506564
Ti	14.30562807	6.29163548	5.50651389
Ti	29.47312687	6.31897241	5.64681073
Ti	18.18311116	6.16755860	5.51978885
O	21.96982940	7.18418370	3.94468892
O	8.54447714	2.19228130	3.97778437
O	23.73277934	2.08886120	3.94179281
O	8.56844539	9.69220929	4.78032518
O	23.80107688	9.68213605	4.98328383
O	21.85867966	4.35039331	4.57770890
O	21.81745169	0.50385679	5.97536225
O	8.55906479	5.82560881	5.66191228
O	23.80821446	5.81178808	5.68659765
O	8.80626498	2.84510386	6.34524020
O	23.77410467	2.75551245	6.45325663
O	21.96607084	7.94915203	6.29484628
O	10.40910898	7.47910829	3.97681609
O	25.81274574	7.24363109	3.86842274
O	14.35557620	7.40998812	4.00916698
O	29.47916383	7.21244839	3.92900601
O	18.07969442	7.21124110	3.95494172
O	12.37192795	2.15021401	4.03999382
O	27.46571132	2.05280461	3.90647890
O	16.13528424	2.16153581	4.00101601
O	19.80640012	1.95744071	3.91090074
O	12.35607584	9.72989894	4.96966410
O	27.53869160	9.64458325	4.71245353
O	16.19481993	9.61457376	4.87211533
O	20.07927597	9.50461997	4.67893992
O	10.40637151	4.53022861	4.96566309
O	25.69653118	4.21533402	4.76842239
O	14.23987626	4.33642832	4.90397013
O	29.59609069	4.48724819	4.72316354
O	18.07000025	4.32261353	4.76301746
O	10.46095467	0.58394425	5.72110071
O	25.68430443	0.50268776	5.73379762
O	14.29320808	0.99595464	6.42526823
O	29.53211118	0.68099910	5.52139013
O	18.01456079	0.68392071	5.83442270
O	12.31049289	5.97195498	5.69327700
O	27.62012774	5.57231916	5.93093276
O	16.21158472	5.83862452	5.77878539
O	20.04205515	5.71454244	5.84727137
O	12.18223537	2.90766957	6.38560112
O	27.71023969	2.76187685	6.34009665
O	16.29201490	3.00102909	6.43762572
O	20.28850894	2.66808604	6.22681368
O	10.41253934	8.15931837	6.40712770
O	25.68862287	7.88738726	6.33939965
O	14.33306322	8.03138134	6.48580609
O	29.25296808	8.07985872	6.32364781
O	18.17426818	7.92370253	6.37634023
Ti	6.63330434	19.75912221	4.77985751
Ti	6.72051100	30.11106767	4.77173277
Ti	6.55286160	16.84278220	5.53169647
Ti	6.63738319	27.19490483	5.59483783
Ti	2.71604243	19.82094606	4.72736814
Ti	3.00910657	30.20134088	4.77068630
Ti	0.94751051	14.29411935	4.63566588
Ti	0.91667095	25.08287881	4.69314211
Ti	4.61305143	14.51142309	4.83371856
Ti	4.73729590	24.88954715	4.66740478
Ti	0.89933079	11.43110012	5.45500376
Ti	0.79767477	22.18630431	5.51431372
Ti	4.69707642	11.57894587	5.46494072
Ti	4.76266283	21.98763720	5.46642283
Ti	2.86583683	17.00511613	5.66992378
Ti	2.91844912	27.29000242	5.48289339
O	6.44390489	17.85446165	3.96380885
O	6.68642826	28.15459804	3.93453741
O	6.58704084	14.79920091	4.84357586
O	6.60270796	25.29495899	4.91487114
O	6.62971363	11.09163884	5.87555531
O	6.57396480	21.43745829	5.84354763
O	6.69048151	18.64411223	6.36285944
O	6.66791325	28.93821269	6.37515962
O	2.73925041	17.92092854	3.96555233
O	2.99441572	28.26609878	3.93195743
O	0.82312610	12.48660327	3.86257681
O	0.88887475	23.09621258	3.92396140
O	4.69451995	12.66743897	4.02808670
O	4.67135694	23.05405173	3.88770866
O	0.79464949	20.21482964	4.77777891
O	0.97323419	30.64010613	4.92628284
O	4.67510787	20.15256077	4.74860241
O	4.86231434	30.51635823	4.97614815
O	2.73193708	15.04759342	4.86076966
O	2.84411245	25.45591573	4.83379947
O	2.85669557	11.00424301	5.79493549
O	2.72761751	21.56685367	5.59972512
O	1.00021305	16.73122707	6.10663069
O	0.97661819	26.90513249	5.78885966
O	4.77330278	16.27936175	5.89000407
O	4.73590763	26.74274369	5.81943333
O	0.94020958	13.13489954	6.28426254
O	1.05551076	23.82596412	6.43982432
O	4.59741459	13.27875933	6.61042552
O	4.81734157	23.71830256	6.22127396
O	2.83656314	18.76149794	6.48285910
O	3.02641314	29.02727480	6.30839877
Ti	21.88030036	19.72796455	4.83069422
Ti	21.86223877	30.19584140	4.83938787
Ti	8.52092565	14.42541055	4.79379347
Ti	8.53284156	24.93854066	4.89179165
Ti	23.77993037	14.47586148	4.89892392
Ti	23.75802785	25.09822413	4.84120428
Ti	8.48978904	11.53169922	5.56899356
Ti	8.55134465	21.97351184	5.61164099
Ti	23.64819732	11.57366167	5.56157709
Ti	23.69960978	22.07952574	5.48922820
Ti	21.99291706	16.79050750	5.51541391
Ti	21.78537062	27.30728676	5.44041635
Ti	10.41762162	19.71048870	4.84461485
Ti	10.70317303	30.17306520	4.87206047
Ti	25.60202491	19.70840739	4.76311621
Ti	25.63350472	30.20823029	4.70908170
Ti	14.21090267	19.64306334	4.64915843
Ti	14.25735432	30.17409461	4.57092027
Ti	29.42878990	19.74694331	4.82415422
Ti	29.50772270	30.25262380	4.77234558
Ti	18.07402259	19.67413366	4.74260972
Ti	18.01503205	30.17024059	4.76966602
Ti	12.36397055	14.53056629	4.65947790
Ti	12.35126804	24.94256172	4.68185715
Ti	27.71937434	14.53268105	4.69087526
Ti	27.64505641	24.98766700	4.70554608
Ti	16.18366105	14.43589414	4.75835122
Ti	16.11948242	24.95120524	4.80949301
Ti	20.03837447	14.42647351	4.71020754
Ti	19.95743375	24.94023801	4.67874677
Ti	12.36878586	11.63485554	5.59989519
Ti	12.40002225	21.97516924	5.44346803
Ti	27.62648215	11.57177078	5.51371630
Ti	27.48974479	22.11406897	5.54933138
Ti	16.30347180	11.48402897	5.45215398
Ti	16.18067562	21.97224963	5.50337475
Ti	19.99315726	11.43855220	5.49977848
Ti	19.91358052	22.01097145	5.44537027
Ti	10.39131159	16.71561345	5.47566335
Ti	10.52357311	27.27499191	5.53806400
Ti	25.69276453	16.78782353	5.53287962
Ti	25.72396644	27.29796788	5.41624891
Ti	14.18854598	16.72448475	5.76086731
Ti	14.29255528	27.29797084	5.58078678
Ti	29.69721458	16.83876488	5.54954820
Ti	29.55156010	27.44407397	5.66336199
Ti	18.08871421	16.78390571	5.37634116
Ti	18.07492740	27.26286708	5.48233645
O	21.73092164	17.89687475	3.96045405
O	21.59860441	28.41393721	3.87191471
O	8.51536942	12.56285684	3.94534669
O	8.75274757	23.12688900	3.97455615
O	23.70555321	12.66774581	3.98025234
O	23.52319227	23.10379393	3.90330463
O	8.47962007	20.11985751	4.73964225
O	8.61651521	30.62671265	4.89370083
O	23.70006202	20.18725046	4.86541375
O	23.73843795	30.49881564	4.62537070
O	21.97787983	15.00602305	4.62701789
O	21.83940201	25.37144626	4.78581824
O	21.84285779	10.84295496	5.79600517
O	21.82500809	21.62211330	5.66794733
O	8.48749789	16.13466570	5.79451000
O	8.59969472	26.77487376	5.79336610
O	23.80596975	16.17263589	5.95628052
O	23.78001781	26.93239653	5.81498563
O	8.53630487	13.26101622	6.42099276
O	8.46309292	23.61264447	6.47635143
O	23.42104979	13.36518368	6.38041907
O	23.86591936	23.86684311	6.30225235
O	21.74659159	18.41251069	6.37086905
O	21.82059670	28.96762308	6.32856944
O	10.37748595	17.96849233	3.95199341
O	10.48881565	28.23686894	3.97921574
O	25.62142017	17.85744445	3.97995578
O	25.73820873	28.32418008	3.84135909
O	14.38148337	17.74469026	3.99016441
O	14.46911806	28.31242579	3.95603166
O	29.53850369	17.87432040	3.97952835
O	29.69664770	28.28963271	3.96116413
O	18.10839901	17.76588917	3.83697179
O	18.05703769	28.34166254	3.89652655
O	12.45316176	12.58004828	3.96990251
O	12.47005595	23.11754301	3.92013128
O	27.49990215	12.64953504	3.92777996
O	27.66265888	23.09223667	3.91908043
O	16.07844372	12.52928454	3.87687156
O	16.22284096	23.11303848	3.97396165
O	20.02985890	12.46531402	3.92106179
O	20.13350903	23.06164842	3.94797018
O	12.32388128	20.05521752	4.94194361
O	12.46715613	30.81439735	4.92087875
O	27.48975657	20.20936647	4.71448884
O	27.60681904	30.46958564	4.86018784
O	16.03083853	20.14358243	4.71851406
O	16.14142968	30.82166019	4.96239706
O	19.94972481	20.12861887	4.84531126
O	19.94755190	30.54576285	4.93779293
O	10.40027537	14.82998725	4.91171455
O	10.49194994	25.36023652	4.85064758
O	25.66173021	14.92153083	4.71322848
O	25.76752802	25.45006494	4.63869345
O	14.26468307	14.79227518	4.94207966
O	14.26209656	25.47127317	4.76343093
O	29.61540140	14.83487648	4.89969657
O	29.53219876	25.47456844	4.86880513
O	18.06724136	14.83631860	4.70259436
O	18.04353128	25.41988648	4.74187086
O	10.43152436	11.14181897	5.81601386
O	10.40122720	21.58976610	5.63391641
O	25.73607506	11.08841039	5.77000254
O	25.62935483	21.52472496	5.79354957
O	14.31279865	11.22425004	5.78314519
O	14.32016148	21.53386830	5.77571617
O	29.51143875	10.93843263	5.66862780
O	29.39307512	21.52923546	5.74385928
O	18.12795705	10.84017344	5.68675494
O	18.06972713	21.48172593	5.61575404
O	12.25955079	16.41552059	5.50364825
O	12.30925759	26.78460257	5.88470115
O	27.56766970	16.29594049	5.62644216
O	27.63977357	26.80647533	5.76935214
O	16.24965439	16.35485815	5.67469106
O	16.18569967	26.74790006	5.83572320
O	20.00376960	16.24596139	5.75762322
O	19.94206692	26.59474821	5.82119771
O	12.40100127	13.36188458	6.34962256
O	12.48550371	23.76770950	6.37667308
O	27.23681549	13.24181612	6.47120996
O	27.37268223	23.89205772	6.38407059
O	16.21136148	13.27610073	6.37576576
O	16.25653241	23.65542374	6.35098102
O	20.31707362	13.30035296	6.25021105
O	19.56533473	23.82390553	6.23907633
O	10.40617929	18.42411700	6.35431316
O	10.88576549	28.98595489	6.46775411
O	25.53907442	18.46526322	6.36384028
O	25.66862128	29.06929399	6.37268524
O	14.32860273	18.59094134	6.22006777
O	14.11244342	28.96770738	6.36149417
O	29.27202718	18.58509939	6.36794062
O	29.32827008	29.08011601	6.46717368
O	18.05051468	18.49643314	6.22399889
O	17.96482346	29.04634934	6.27563810
H	14.85143939	14.04660670	7.72454250
H	13.84184445	14.65296089	11.10714063
H	14.73208709	18.24725957	8.99964038
O	13.94154447	16.11372131	7.56952496
O	14.86028117	14.41375472	8.63803973
C	14.33565624	15.59387698	8.70940565
C	14.33583033	16.39478547	9.96766867
C	14.14042306	15.71215086	11.14855793
C	14.54451967	17.79727450	9.97986561
N	12.94692847	19.55923746	15.52550667
N	15.43894173	22.34300902	16.96488105
N	15.66979450	20.15853740	14.91472329
N	12.62729494	21.70369010	17.40165908
C	21.35330788	20.85584074	16.36606857
C	14.41469446	25.23547647	21.79080021
C	7.18288447	19.89955078	16.31938425
C	19.04963761	21.62471077	15.97585578
C	13.88518856	24.65305671	19.45447516
C	9.45997459	19.83433859	17.08445867
C	20.93511687	22.83625649	15.04451882
C	13.51146356	26.90873199	20.31193059
C	7.69392049	18.69543612	18.27023522
C	14.31849864	18.59930627	13.59585921
C	17.56572942	21.33943701	16.02999527
C	13.95295917	23.64874539	18.36857482
C	10.91053055	20.09943175	16.82998216
C	15.53875765	19.22686939	13.93166227
C	17.01860710	20.42150169	15.06535783
C	12.78155043	22.83476117	18.16471377
C	11.34572208	21.30506852	17.43605203
C	16.84226102	18.85239812	13.40587348
C	17.70119368	19.57623911	14.18119236
C	11.46359607	23.09144824	18.75236516
C	10.60446511	22.15587377	18.29822500
C	13.19962750	18.65400709	14.49616435
C	16.79795225	22.18874789	16.88690871
C	15.20073642	23.38198863	17.78367818
C	11.66443250	19.23947458	16.00920845
C	12.11632253	17.76162251	14.37623548
C	17.44261447	23.16952695	17.70855509
C	16.43123917	23.99800860	18.15924161
C	11.15921096	18.10110533	15.35550161
H	11.99465780	16.94147300	13.66908086
H	18.53575503	23.25942456	17.82720160
H	16.60479337	24.78340851	18.90983177
H	10.26482210	17.53133246	15.48566734
H	16.98728401	18.07697842	12.63563396
H	18.79516457	19.52896609	14.07771699
H	11.16990120	23.88769818	19.42302664
H	9.53948632	21.98551860	18.55969082
H	21.20428828	23.62902211	14.38045554
H	13.24291743	27.91490763	20.13026318
H	7.42638368	18.20834499	19.18277802
H	22.03842659	20.20539976	16.90689683
H	14.77447295	24.96271896	22.72553339
H	6.54271968	20.23144588	15.49929035
H	14.81965677	20.48534142	15.36226749
H	13.32143477	21.14483577	16.87697017
C	23.27576281	22.15888049	15.35497825
H	23.73303936	21.34040984	14.75403656
H	23.86277138	22.27676908	16.27468666
H	23.37364130	23.07328611	14.77628117
C	19.50823217	19.57814531	17.45903372
H	18.41601669	19.61813001	17.60509339
H	19.86422060	19.72516372	18.50250901
H	19.85714601	18.63179913	17.08652406
C	18.55996977	23.74905683	14.76793208
H	18.78433918	24.17762040	13.81845333
H	18.55601820	24.57988821	15.48574867
H	17.51033516	23.40844700	14.70359710
C	10.01937220	18.64122618	19.28352756
H	10.58979583	17.76222536	19.00456739
H	9.44941617	18.36364143	20.20385135
H	10.71106862	19.45273977	19.57733126
C	8.96156470	21.25780614	15.07415578
H	9.82675552	21.82647289	15.36086904
H	8.16197410	21.93427406	14.77032166
H	9.24482697	20.61343244	14.22512781
C	5.35389740	18.37272576	17.14759269
H	5.39428802	17.68591478	16.27132819
H	4.54797958	19.07396329	16.92183059
H	5.08356688	17.79006799	18.12831640
C	12.84739446	26.38190224	17.90329881
H	12.20370046	25.60379206	17.53458223
H	13.66486993	26.53728860	17.21834536
H	12.26419606	27.33501497	17.90739592
C	14.80429317	22.95883506	21.10494632
H	14.06971710	22.58989907	21.83655311
H	15.83912977	23.06249906	21.51982612
H	14.75595058	22.23813300	20.25134602
C	14.40400502	27.66996815	22.55369357
H	14.29068916	27.31962533	23.56943613
H	13.80323271	28.54097264	22.36365846
H	15.43085855	27.96322155	22.38772635
C	21.85298743	21.93624675	15.60256581
C	19.97397232	20.72085897	16.60944284
C	19.54242915	22.69679122	15.23143104
C	13.39653930	25.97754047	19.23542194
C	14.36262730	24.32784130	20.75107218
C	14.05719293	26.56795924	21.53769478
C	9.02793196	19.09724215	18.24296325
C	8.50433313	20.34335019	16.18756440
C	6.75330403	18.95584625	17.25056777
H	14.05456767	15.79046099	13.33791848
H	14.75425354	19.55538988	11.34251700
C	14.26633658	17.76200934	12.35425012
C	14.10938250	16.36567337	12.42235308
C	14.55324718	18.51526990	11.19321478

Ti O H C N 0
6-31G*
****

