%chk=f00015775.chk
%mem=24GB
%nproc=12
#p b3lyp/6-31G*

title

0 1
Ti	2.81187400	0.19704000	1.10336000
Ti	0.90594400	5.44057000	1.10336000
Ti	4.71781400	5.44057000	1.10336000
Ti	0.90594400	2.47241000	1.99114000
Ti	4.71781400	2.47241000	1.99114000
Ti	2.81187400	7.71594000	1.99115000
O	2.81187400	8.81302000	0.37332000
O	0.90594400	3.56949000	0.37332000
O	4.71781400	3.56949000	0.37332000
O	0.90594400	0.60134000	1.26110000
O	4.71781400	0.60134000	1.26110000
O	2.81187400	5.84486000	1.26111000
O	2.81187400	2.06812000	1.83340000
O	0.90594400	7.31164000	1.83340000
O	4.71781400	7.31164000	1.83340000
O	0.90594400	4.34349000	2.72118000
O	4.71781400	4.34349000	2.72118000
O	2.81187400	9.58701000	2.72118000
Ti	6.62374588	0.19704000	1.10336000
Ti	21.87123776	0.19704000	1.10336000
Ti	8.52968588	5.44057000	1.10336000
Ti	23.77717776	5.44057000	1.10336000
Ti	8.52968588	2.47241000	1.99114000
Ti	23.77717776	2.47241000	1.99114000
Ti	6.62374588	7.71594000	1.99115000
Ti	21.87123776	7.71594000	1.99115000
Ti	10.43561588	0.19704000	1.10336000
Ti	25.68310776	0.19704000	1.10336000
Ti	14.24749588	0.19704000	1.10336000
Ti	29.49498776	0.19704000	1.10336000
Ti	18.05936588	0.19704000	1.10336000
Ti	12.34155588	5.44057000	1.10336000
Ti	27.58904776	5.44057000	1.10336000
Ti	16.15343588	5.44057000	1.10336000
Ti	19.96530588	5.44057000	1.10336000
Ti	12.34155588	2.47241000	1.99114000
Ti	27.58904776	2.47241000	1.99114000
Ti	16.15343588	2.47241000	1.99114000
Ti	19.96530588	2.47241000	1.99114000
Ti	10.43561588	7.71594000	1.99115000
Ti	25.68310776	7.71594000	1.99115000
Ti	14.24749588	7.71594000	1.99115000
Ti	29.49498776	7.71594000	1.99115000
Ti	18.05936588	7.71594000	1.99115000
O	6.62374588	8.81302000	0.37332000
O	21.87123776	8.81302000	0.37332000
O	8.52968588	3.56949000	0.37332000
O	23.77717776	3.56949000	0.37332000
O	8.52968588	0.60134000	1.26110000
O	23.77717776	0.60134000	1.26110000
O	6.62374588	5.84486000	1.26111000
O	21.87123776	5.84486000	1.26111000
O	6.62374588	2.06812000	1.83340000
O	21.87123776	2.06812000	1.83340000
O	8.52968588	7.31164000	1.83340000
O	23.77717776	7.31164000	1.83340000
O	8.52968588	4.34349000	2.72118000
O	23.77717776	4.34349000	2.72118000
O	6.62374588	9.58701000	2.72118000
O	21.87123776	9.58701000	2.72118000
O	10.43561588	8.81302000	0.37332000
O	25.68310776	8.81302000	0.37332000
O	14.24749588	8.81302000	0.37332000
O	29.49498776	8.81302000	0.37332000
O	18.05936588	8.81302000	0.37332000
O	12.34155588	3.56949000	0.37332000
O	27.58904776	3.56949000	0.37332000
O	16.15343588	3.56949000	0.37332000
O	19.96530588	3.56949000	0.37332000
O	12.34155588	0.60134000	1.26110000
O	27.58904776	0.60134000	1.26110000
O	16.15343588	0.60134000	1.26110000
O	19.96530588	0.60134000	1.26110000
O	10.43561588	5.84486000	1.26111000
O	25.68310776	5.84486000	1.26111000
O	14.24749588	5.84486000	1.26111000
O	29.49498776	5.84486000	1.26111000
O	18.05936588	5.84486000	1.26111000
O	10.43561588	2.06812000	1.83340000
O	25.68310776	2.06812000	1.83340000
O	14.24749588	2.06812000	1.83340000
O	29.49498776	2.06812000	1.83340000
O	18.05936588	2.06812000	1.83340000
O	12.34155588	7.31164000	1.83340000
O	27.58904776	7.31164000	1.83340000
O	16.15343588	7.31164000	1.83340000
O	19.96530588	7.31164000	1.83340000
O	12.34155588	4.34349000	2.72118000
O	27.58904776	4.34349000	2.72118000
O	16.15343588	4.34349000	2.72118000
O	19.96530588	4.34349000	2.72118000
O	10.43561588	9.58701000	2.72118000
O	25.68310776	9.58701000	2.72118000
O	14.24749588	9.58701000	2.72118000
O	29.49498776	9.58701000	2.72118000
O	18.05936588	9.58701000	2.72118000
Ti	2.81187400	10.68408607	1.10336000
Ti	2.81187400	21.17113214	1.10336000
Ti	0.90594400	15.92761607	1.10336000
Ti	0.90594400	26.41466214	1.10336000
Ti	4.71781400	15.92761607	1.10336000
Ti	4.71781400	26.41466214	1.10336000
Ti	0.90594400	12.95945607	1.99114000
Ti	0.90594400	23.44650214	1.99114000
Ti	4.71781400	12.95945607	1.99114000
Ti	4.71781400	23.44650214	1.99114000
Ti	2.81187400	18.20298607	1.99115000
Ti	2.81187400	28.69003214	1.99115000
O	2.81187400	19.30006607	0.37332000
O	2.81187400	29.78711214	0.37332000
O	0.90594400	14.05653607	0.37332000
O	0.90594400	24.54358214	0.37332000
O	4.71781400	14.05653607	0.37332000
O	4.71781400	24.54358214	0.37332000
O	0.90594400	11.08838607	1.26110000
O	0.90594400	21.57543214	1.26110000
O	4.71781400	11.08838607	1.26110000
O	4.71781400	21.57543214	1.26110000
O	2.81187400	16.33190607	1.26111000
O	2.81187400	26.81895214	1.26111000
O	2.81187400	12.55516607	1.83340000
O	2.81187400	23.04221214	1.83340000
O	0.90594400	17.79868607	1.83340000
O	0.90594400	28.28573214	1.83340000
O	4.71781400	17.79868607	1.83340000
O	4.71781400	28.28573214	1.83340000
O	0.90594400	14.83053607	2.72118000
O	0.90594400	25.31758214	2.72118000
O	4.71781400	14.83053607	2.72118000
O	4.71781400	25.31758214	2.72118000
O	2.81187400	20.07405607	2.72118000
O	2.81187400	30.56110214	2.72118000
Ti	6.62374588	10.68408607	1.10336000
Ti	6.62374588	21.17113214	1.10336000
Ti	21.87123776	10.68408607	1.10336000
Ti	21.87123776	21.17113214	1.10336000
Ti	8.52968588	15.92761607	1.10336000
Ti	8.52968588	26.41466214	1.10336000
Ti	23.77717776	15.92761607	1.10336000
Ti	23.77717776	26.41466214	1.10336000
Ti	8.52968588	12.95945607	1.99114000
Ti	8.52968588	23.44650214	1.99114000
Ti	23.77717776	12.95945607	1.99114000
Ti	23.77717776	23.44650214	1.99114000
Ti	6.62374588	18.20298607	1.99115000
Ti	6.62374588	28.69003214	1.99115000
Ti	21.87123776	18.20298607	1.99115000
Ti	21.87123776	28.69003214	1.99115000
Ti	10.43561588	10.68408607	1.10336000
Ti	10.43561588	21.17113214	1.10336000
Ti	25.68310776	10.68408607	1.10336000
Ti	25.68310776	21.17113214	1.10336000
Ti	14.24749588	10.68408607	1.10336000
Ti	14.24749588	21.17113214	1.10336000
Ti	29.49498776	10.68408607	1.10336000
Ti	29.49498776	21.17113214	1.10336000
Ti	18.05936588	10.68408607	1.10336000
Ti	18.05936588	21.17113214	1.10336000
Ti	12.34155588	15.92761607	1.10336000
Ti	12.34155588	26.41466214	1.10336000
Ti	27.58904776	15.92761607	1.10336000
Ti	27.58904776	26.41466214	1.10336000
Ti	16.15343588	15.92761607	1.10336000
Ti	16.15343588	26.41466214	1.10336000
Ti	19.96530588	15.92761607	1.10336000
Ti	19.96530588	26.41466214	1.10336000
Ti	12.34155588	12.95945607	1.99114000
Ti	12.34155588	23.44650214	1.99114000
Ti	27.58904776	12.95945607	1.99114000
Ti	27.58904776	23.44650214	1.99114000
Ti	16.15343588	12.95945607	1.99114000
Ti	16.15343588	23.44650214	1.99114000
Ti	19.96530588	12.95945607	1.99114000
Ti	19.96530588	23.44650214	1.99114000
Ti	10.43561588	18.20298607	1.99115000
Ti	10.43561588	28.69003214	1.99115000
Ti	25.68310776	18.20298607	1.99115000
Ti	25.68310776	28.69003214	1.99115000
Ti	14.24749588	18.20298607	1.99115000
Ti	14.24749588	28.69003214	1.99115000
Ti	29.49498776	18.20298607	1.99115000
Ti	29.49498776	28.69003214	1.99115000
Ti	18.05936588	18.20298607	1.99115000
Ti	18.05936588	28.69003214	1.99115000
O	6.62374588	19.30006607	0.37332000
O	6.62374588	29.78711214	0.37332000
O	21.87123776	19.30006607	0.37332000
O	21.87123776	29.78711214	0.37332000
O	8.52968588	14.05653607	0.37332000
O	8.52968588	24.54358214	0.37332000
O	23.77717776	14.05653607	0.37332000
O	23.77717776	24.54358214	0.37332000
O	8.52968588	11.08838607	1.26110000
O	8.52968588	21.57543214	1.26110000
O	23.77717776	11.08838607	1.26110000
O	23.77717776	21.57543214	1.26110000
O	6.62374588	16.33190607	1.26111000
O	6.62374588	26.81895214	1.26111000
O	21.87123776	16.33190607	1.26111000
O	21.87123776	26.81895214	1.26111000
O	6.62374588	12.55516607	1.83340000
O	6.62374588	23.04221214	1.83340000
O	21.87123776	12.55516607	1.83340000
O	21.87123776	23.04221214	1.83340000
O	8.52968588	17.79868607	1.83340000
O	8.52968588	28.28573214	1.83340000
O	23.77717776	17.79868607	1.83340000
O	23.77717776	28.28573214	1.83340000
O	8.52968588	14.83053607	2.72118000
O	8.52968588	25.31758214	2.72118000
O	23.77717776	14.83053607	2.72118000
O	23.77717776	25.31758214	2.72118000
O	6.62374588	20.07405607	2.72118000
O	6.62374588	30.56110214	2.72118000
O	21.87123776	20.07405607	2.72118000
O	21.87123776	30.56110214	2.72118000
O	10.43561588	19.30006607	0.37332000
O	10.43561588	29.78711214	0.37332000
O	25.68310776	19.30006607	0.37332000
O	25.68310776	29.78711214	0.37332000
O	14.24749588	19.30006607	0.37332000
O	14.24749588	29.78711214	0.37332000
O	29.49498776	19.30006607	0.37332000
O	29.49498776	29.78711214	0.37332000
O	18.05936588	19.30006607	0.37332000
O	18.05936588	29.78711214	0.37332000
O	12.34155588	14.05653607	0.37332000
O	12.34155588	24.54358214	0.37332000
O	27.58904776	14.05653607	0.37332000
O	27.58904776	24.54358214	0.37332000
O	16.15343588	14.05653607	0.37332000
O	16.15343588	24.54358214	0.37332000
O	19.96530588	14.05653607	0.37332000
O	19.96530588	24.54358214	0.37332000
O	12.34155588	11.08838607	1.26110000
O	12.34155588	21.57543214	1.26110000
O	27.58904776	11.08838607	1.26110000
O	27.58904776	21.57543214	1.26110000
O	16.15343588	11.08838607	1.26110000
O	16.15343588	21.57543214	1.26110000
O	19.96530588	11.08838607	1.26110000
O	19.96530588	21.57543214	1.26110000
O	10.43561588	16.33190607	1.26111000
O	10.43561588	26.81895214	1.26111000
O	25.68310776	16.33190607	1.26111000
O	25.68310776	26.81895214	1.26111000
O	14.24749588	16.33190607	1.26111000
O	14.24749588	26.81895214	1.26111000
O	29.49498776	16.33190607	1.26111000
O	29.49498776	26.81895214	1.26111000
O	18.05936588	16.33190607	1.26111000
O	18.05936588	26.81895214	1.26111000
O	10.43561588	12.55516607	1.83340000
O	10.43561588	23.04221214	1.83340000
O	25.68310776	12.55516607	1.83340000
O	25.68310776	23.04221214	1.83340000
O	14.24749588	12.55516607	1.83340000
O	14.24749588	23.04221214	1.83340000
O	29.49498776	12.55516607	1.83340000
O	29.49498776	23.04221214	1.83340000
O	18.05936588	12.55516607	1.83340000
O	18.05936588	23.04221214	1.83340000
O	12.34155588	17.79868607	1.83340000
O	12.34155588	28.28573214	1.83340000
O	27.58904776	17.79868607	1.83340000
O	27.58904776	28.28573214	1.83340000
O	16.15343588	17.79868607	1.83340000
O	16.15343588	28.28573214	1.83340000
O	19.96530588	17.79868607	1.83340000
O	19.96530588	28.28573214	1.83340000
O	12.34155588	14.83053607	2.72118000
O	12.34155588	25.31758214	2.72118000
O	27.58904776	14.83053607	2.72118000
O	27.58904776	25.31758214	2.72118000
O	16.15343588	14.83053607	2.72118000
O	16.15343588	25.31758214	2.72118000
O	19.96530588	14.83053607	2.72118000
O	19.96530588	25.31758214	2.72118000
O	10.43561588	20.07405607	2.72118000
O	10.43561588	30.56110214	2.72118000
O	25.68310776	20.07405607	2.72118000
O	25.68310776	30.56110214	2.72118000
O	14.24749588	20.07405607	2.72118000
O	14.24749588	30.56110214	2.72118000
O	29.49498776	20.07405607	2.72118000
O	29.49498776	30.56110214	2.72118000
O	18.05936588	20.07405607	2.72118000
O	18.05936588	30.56110214	2.72118000
Ti	6.67160166	9.20590986	4.80029900
Ti	6.72282696	6.30189904	5.53299322
Ti	2.75116636	9.18463576	4.84249521
Ti	0.92071088	3.87831203	4.70765060
Ti	4.85728446	3.95937680	4.73338315
Ti	0.99664971	0.94596188	5.42586833
Ti	4.78718898	1.09064493	5.51437825
Ti	2.87396112	6.25078040	5.37538899
O	6.73444454	7.37746280	3.95955647
O	6.70755993	4.32864026	5.09483432
O	6.73259178	0.54399684	5.57127829
O	6.76666930	8.08779790	6.33379219
O	2.73256185	7.41988489	3.89587760
O	0.73931069	1.94051264	3.91016445
O	4.76487781	2.00276678	3.84611862
O	0.88517156	9.50153209	4.71038046
O	4.75327607	9.67894953	4.73475106
O	2.92115617	4.30591772	4.74652218
O	2.86857694	0.56730643	5.77638727
O	0.99726717	5.66749918	5.59260535
O	4.76832740	5.93459656	5.59467788
O	1.08777095	2.74472393	6.39925553
O	4.78851755	2.80738557	6.39980271
O	2.90653477	7.91367258	6.42051369
Ti	21.77553606	9.24961277	4.84681418
Ti	8.58108380	3.93194131	4.74480701
Ti	23.87085258	4.14092506	4.76778702
Ti	8.56467906	1.00818447	5.45508170
Ti	23.82348071	1.12037578	5.48102761
Ti	21.89739089	6.31532960	5.53401842
Ti	10.40798976	9.24484272	4.71061958
Ti	25.67758388	9.28544051	4.74071557
Ti	14.19322599	9.25270938	4.84055256
Ti	29.47334204	9.09826918	4.82900773
Ti	17.93880448	9.20681299	4.68048153
Ti	12.36692328	3.87712756	4.80103296
Ti	27.64295228	4.00969629	4.83922993
Ti	16.19839494	3.99613121	4.66094628
Ti	19.97505444	3.99057144	4.73915838
Ti	12.40692723	0.97131624	5.41645079
Ti	27.69279788	1.10576949	5.53996178
Ti	16.15315033	1.09096479	5.55748865
Ti	19.99695157	1.01660454	5.40002464
Ti	10.53385402	6.37516638	5.50757940
Ti	25.78436158	6.40676068	5.51837419
Ti	14.24228650	6.31009547	5.55963196
Ti	29.62060525	6.17474598	5.46793252
Ti	18.14033852	6.28946222	5.41853704
O	21.91374185	7.40502120	3.99797871
O	8.37811440	2.06448544	3.84289144
O	23.72342789	2.27356283	3.98548006
O	8.51963529	9.77278802	4.56946349
O	23.64733864	9.66043590	4.65909783
O	21.86093599	4.45236149	4.86638295
O	21.98777656	0.53091032	5.71440701
O	8.65854447	5.79886268	5.47654383
O	23.81648658	5.86975783	5.77633301
O	8.66189598	2.71064277	6.31611050
O	23.99155351	2.93872860	6.32054163
O	21.82215772	8.15989078	6.39691623
O	10.63959185	7.30655840	3.90711911
O	25.72363413	7.31151460	3.96213227
O	14.12915924	7.43844750	3.96246456
O	29.38701539	7.31251708	3.92468773
O	18.12658977	7.39107767	3.86373250
O	12.39610833	2.07546575	3.89277213
O	27.62099182	2.13388883	3.92721872
O	16.36394937	2.16354813	3.98774229
O	19.97179787	2.12522269	3.87945995
O	12.33927432	9.82787510	4.63498823
O	27.58936660	9.64936412	4.76791364
O	16.13033634	9.64635542	4.94461418
O	19.87268407	9.61998773	4.95584480
O	10.50912556	4.31758728	4.77128483
O	25.72193891	4.45583576	4.73888626
O	14.25314237	4.47413858	4.79028607
O	29.55007703	4.31947425	4.88619635
O	18.01756250	4.39682544	4.80767112
O	10.36798634	0.42826700	5.65792577
O	25.74420121	0.65554588	5.56334220
O	14.26665463	0.55525719	5.79701053
O	29.56574115	0.58601149	5.79528112
O	18.09396171	0.58251049	5.81083187
O	12.30580127	5.81923433	5.89493370
O	27.63909596	5.80504584	5.82064492
O	16.17878914	5.80633123	5.67844140
O	19.91180790	5.73395507	5.83943642
O	12.40914866	2.70594306	6.33768401
O	27.59101672	2.83469749	6.28821317
O	16.22334550	2.79023496	6.43061759
O	20.10358522	2.72122519	6.21078876
O	10.24600983	8.10048436	6.25014036
O	25.58373585	8.18807345	6.41270383
O	14.27674786	8.06054635	6.45066342
O	29.55769731	7.87743768	6.37405832
O	17.93308358	8.03000040	6.31004188
Ti	6.53484924	19.76757767	4.78064327
Ti	6.64966049	30.16446742	4.80285643
Ti	6.61361644	16.79854452	5.41511935
Ti	6.64400677	27.26849012	5.57538650
Ti	2.82944564	19.69885609	4.72055218
Ti	2.89832322	30.19289538	4.78327784
Ti	0.79826249	14.25222398	4.64242460
Ti	0.86296989	25.04335234	4.83245150
Ti	4.61648159	14.54962471	4.87948732
Ti	4.76844921	24.92759631	4.73965720
Ti	0.85428280	11.35402154	5.58442455
Ti	0.88517905	22.07970470	5.53722303
Ti	4.70535746	11.52879916	5.49931881
Ti	4.72203177	22.03723103	5.61260211
Ti	2.73416090	16.79222039	5.59874455
Ti	2.90679472	27.22624644	5.50462527
O	6.68640126	17.86283020	3.90565093
O	6.50651132	28.34722434	4.00102903
O	6.47636139	14.88146980	4.75589296
O	6.67005246	25.46113880	4.82304455
O	6.66151856	11.10314230	5.75381771
O	6.56254573	21.50447463	5.77861589
O	6.69661531	18.48543355	6.32780541
O	6.58582528	29.05849036	6.46003916
O	2.63695972	17.80658484	3.96267600
O	2.78221111	28.29893895	3.94578988
O	0.94180555	12.45147221	3.90434888
O	0.92687434	23.17686245	3.96875887
O	4.81518278	12.68115633	3.98302829
O	4.68686962	23.08711094	3.97628932
O	0.86449620	20.18472493	4.80507035
O	0.92545151	30.52779708	4.86112906
O	4.69282102	20.20716454	4.64716817
O	4.73954095	30.75238667	4.82086054
O	2.65766656	14.93325705	4.84538570
O	2.81538523	25.41620021	4.79209531
O	2.75906135	11.02694320	5.75749225
O	2.78667851	21.51037771	5.80729360
O	0.84773902	16.75515647	6.06861724
O	0.85616962	26.75756391	5.86264075
O	4.65550830	16.37615002	5.75693486
O	4.76340624	26.71641874	5.74077930
O	0.97233209	13.18696833	6.32684685
O	0.78565427	23.77992768	6.36194491
O	4.61356755	13.26584513	6.39335738
O	4.65685254	23.83853981	6.43630924
O	2.83479587	18.66448622	6.37798750
O	2.92483658	29.05928920	6.37501156
Ti	21.83372199	19.68621537	4.74975944
Ti	21.94269992	30.15557372	4.77007424
Ti	8.38877032	14.46996441	4.70572965
Ti	8.50469018	24.93598625	4.77949307
Ti	23.84863250	14.45714351	4.80424926
Ti	23.85980952	24.84260589	4.66002980
Ti	8.62643350	11.54446852	5.44219435
Ti	8.52977709	22.02212150	5.47058859
Ti	23.65702939	11.53047274	5.46770129
Ti	23.78543957	21.97985750	5.41751999
Ti	22.00575779	16.75189981	5.40062112
Ti	21.89898400	27.26912244	5.49386631
Ti	10.41461862	19.72114829	4.64831409
Ti	10.48593241	30.10916923	4.64971221
Ti	25.71995330	19.68401436	4.66138111
Ti	25.70256712	30.27281939	4.68148299
Ti	14.17558188	19.71138096	4.80878962
Ti	14.36546858	30.12424529	4.67493257
Ti	29.48081340	19.79447729	4.83739573
Ti	29.53226285	30.13058077	4.66010947
Ti	18.07173752	19.74987708	4.89185269
Ti	18.12342691	30.21241150	4.80901478
Ti	12.31562678	14.53235674	4.82188453
Ti	12.38458030	25.03230219	4.84193215
Ti	27.61195724	14.44734942	4.78904911
Ti	27.58360141	24.93128418	4.78420421
Ti	16.10752084	14.55164557	4.70249440
Ti	16.23974170	24.95364376	4.74630154
Ti	20.01917775	14.46154802	4.77879047
Ti	19.97737831	24.98273743	4.75088943
Ti	12.32510693	11.57416710	5.58589734
Ti	12.34052977	22.12023985	5.49671528
Ti	27.54166699	11.50225080	5.49927848
Ti	27.59815074	22.04724311	5.45427372
Ti	16.07083060	11.66784758	5.55729758
Ti	16.15474552	22.08798823	5.54742452
Ti	20.03837396	11.55187474	5.48166070
Ti	19.99205275	22.11794186	5.60251137
Ti	10.25085883	16.79889241	5.51351306
Ti	10.53581645	27.25851335	5.60310889
Ti	25.73942064	16.81774841	5.49899563
Ti	25.67786654	27.34240264	5.53073867
Ti	14.11595111	16.74540490	5.79114551
Ti	14.30227393	27.26579738	5.57799568
Ti	29.52713596	16.85596705	5.50334648
Ti	29.43029916	27.18934739	5.56711282
Ti	18.10343471	16.80151655	5.39605385
Ti	17.96621267	27.29750929	5.48935546
O	21.90841427	17.68973661	3.84722349
O	22.11238446	28.37668444	3.96320979
O	8.51305657	12.64936997	3.89065590
O	8.54070121	23.15389699	3.93531859
O	23.69634233	12.53101464	3.93731908
O	23.81063271	22.99101322	3.82241702
O	8.46629649	20.22851218	4.69985947
O	8.55797877	30.39970443	4.74720603
O	23.84987504	20.03035321	4.70499909
O	23.81059371	30.71386795	4.84723555
O	21.93900980	14.82849356	4.75682923
O	21.95962214	25.37153367	4.89484056
O	21.82073033	11.07572110	5.89812964
O	21.92074132	21.50378343	5.72966998
O	8.42314613	16.29531453	5.76854922
O	8.59406822	26.81160401	5.87023585
O	23.84863382	16.27947853	5.77053656
O	23.86371217	26.63021946	5.93851714
O	8.72381189	13.25697547	6.31791223
O	8.55516124	23.81805034	6.49057186
O	23.74882212	13.37689751	6.30754591
O	23.78589762	23.81474745	6.28691272
O	22.02760108	18.54210453	6.26783484
O	21.81711259	29.07064600	6.32259901
O	10.35440118	17.74739790	3.93154437
O	10.46316074	28.29549205	3.95545584
O	25.66809731	17.67953652	3.88911132
O	25.66744629	28.31239490	3.93354127
O	14.23986693	17.80586623	3.98237713
O	14.26432099	28.24201597	3.93621253
O	29.40937565	17.87930665	3.92965003
O	29.43772413	28.23755007	3.92302396
O	18.27089899	17.96378270	3.89011551
O	18.05330698	28.36439861	4.04854230
O	12.26924460	12.66271205	3.98137827
O	12.54345319	23.13793363	3.95696479
O	27.50910745	12.52086657	3.91525746
O	27.55693516	23.04863241	3.85173340
O	16.12403564	12.53676666	3.85501098
O	16.01239907	23.01928069	3.87661671
O	20.01928434	12.57542872	3.83909758
O	20.10080803	23.18892340	4.07666416
O	12.27456432	20.13128316	4.70012173
O	12.36184557	30.48583421	4.89738017
O	27.57909774	20.14140743	4.73001352
O	27.59450308	30.59742638	4.85323271
O	16.12578286	20.22683620	4.65192210
O	16.25950036	30.61756196	4.82017719
O	19.97495201	20.19175225	4.68725036
O	19.98519876	30.51127498	4.64387156
O	10.31234511	14.76100482	4.89125679
O	10.43522627	25.37327387	4.88401291
O	25.72347638	14.82451004	4.87308992
O	25.67455513	25.44669510	4.57416852
O	14.23497606	15.00478676	4.70160808
O	14.25852609	25.41103959	4.84672567
O	29.54509887	15.04043275	4.70940938
O	29.46484804	25.39814540	4.73026318
O	18.07144780	14.91624809	4.63558417
O	18.10389856	25.34545715	4.79759028
O	10.45625631	10.96039947	5.80120484
O	10.35049048	21.49944459	5.79131267
O	25.55215371	11.09879298	5.61372009
O	25.71571013	21.50016495	5.65845343
O	14.18295382	11.11774537	5.83855915
O	14.23023520	21.44045547	5.77494492
O	29.43032616	10.82669799	5.90767823
O	29.49103972	21.51075989	5.84141053
O	18.02233250	11.18993293	5.67561907
O	18.14676287	21.48720869	5.67460476
O	12.18691394	16.30493259	5.74041331
O	12.36061680	26.81752472	5.97864292
O	27.67231177	16.21407193	5.89020729
O	27.56905267	26.81870447	5.98625660
O	16.21341801	16.24343005	5.68634851
O	16.13380850	26.67076669	5.83330735
O	19.94864917	16.35696284	5.62457746
O	19.94412536	26.88364818	5.83502878
O	12.27290586	13.36921966	6.40547621
O	12.56069122	23.78853453	6.37879196
O	27.77998159	13.27473768	6.36296615
O	27.41735539	23.79294869	6.25013001
O	16.15021383	13.43134650	6.32727358
O	16.40093558	23.82565030	6.30201845
O	20.00664944	13.35893888	6.34052257
O	20.14771607	23.84205297	6.47956167
O	10.27954628	18.60871580	6.36763158
O	10.39460095	29.01553173	6.44489783
O	25.57021100	18.45572866	6.24157985
O	25.59198511	29.13851271	6.24889321
O	14.16601548	18.60999990	6.40831275
O	14.19962351	28.99951894	6.43015037
O	29.50944441	18.61524658	6.41058182
O	29.46435994	28.99673196	6.30357803
O	17.77316033	18.47753938	6.27236725
O	18.02808970	29.07450985	6.38547821
H	12.93930990	14.27832261	7.96227527
H	13.33648197	15.06733509	11.29844531
H	14.16053574	18.37539846	8.72050093
O	14.31220810	15.95917827	7.60976621
O	12.95573544	14.69812271	8.85560762
C	13.62365227	15.78917597	8.73234430
C	13.66412310	16.67534188	9.90312796
C	13.44498359	16.16081354	11.19023610
C	13.97230689	18.04000118	9.70151656
N	12.70965442	19.73911005	15.55515526
N	15.73460833	22.25000522	17.14421166
N	15.04277013	21.24511745	14.44653602
N	13.25505964	20.93330047	18.22062340
C	20.33810794	23.82683363	13.86218423
C	16.17394412	23.57682112	22.82476166
C	7.77268483	18.77886685	18.60265887
C	17.95682526	23.69566496	14.39190452
C	15.01379886	23.19740663	20.70445909
C	10.16141453	18.84275360	18.15179638
C	18.81227108	25.25991190	12.71751215
C	14.48442405	25.13829977	22.09346064
C	9.21060941	17.02649052	19.38618943
C	13.76242808	19.38373128	13.35286154
C	16.84918398	22.86675750	15.06646707
C	14.77405239	22.49147398	19.42870449
C	11.35234567	19.47552231	17.51635321
C	14.81396096	20.36821868	13.42244940
C	16.19539374	21.92289667	14.21945498
C	13.65674531	21.63045404	19.33368812
C	12.08327829	20.28307773	18.38446214
C	15.82670579	20.58597173	12.44995958
C	16.70687009	21.54340581	12.93483420
C	12.67544854	21.36006396	20.34863566
C	11.81385504	20.41547441	19.82586650
C	12.78423482	19.14088052	14.32211682
C	16.63387185	22.97414256	16.43138921
C	15.73691455	22.80233487	18.40712470
C	11.64151712	19.18542105	16.21847056
C	11.67090008	18.30105775	14.11153045
C	17.14741866	24.04035269	17.21838026
C	16.59231176	23.95812953	18.45825666
C	10.97943803	18.26783550	15.32510365
H	11.43278814	17.67335138	13.24028170
H	17.85325091	24.84257359	16.86850967
H	16.72718902	24.51109521	19.37880524
H	9.94058850	17.78945374	15.45356784
H	15.99542656	20.05648510	11.50601809
H	17.62009633	21.94324375	12.51382156
H	12.59453394	21.76542688	21.33823723
H	11.01479691	20.03922449	20.42252250
H	18.54336010	26.09998168	12.01327690
H	13.87499503	26.07124150	22.25118945
H	9.25011500	16.04058905	19.85920024
H	21.37770802	23.37251127	13.87733146
H	16.93691512	23.35333455	23.56088329
H	6.81100966	19.27237831	18.49728078
H	14.53929144	21.16536237	15.34742146
H	13.72727704	21.00219473	17.29021799
C	21.28269801	25.57855999	12.33894911
H	21.09196841	26.66554303	12.13927901
H	21.58953068	25.11111728	11.42774429
H	22.20302821	25.49114730	12.97119135
C	19.64346678	21.97645031	15.39771069
H	18.92435252	21.17713844	15.16945634
H	19.64450576	22.14704700	16.49802617
H	20.60952103	21.69443048	15.07292924
C	16.28181696	25.20149996	13.25591968
H	16.29532680	25.79067359	12.31567146
H	16.08073519	25.91988261	14.03683281
H	15.57109129	24.42083338	13.15901854
C	11.69876770	17.08372734	19.12356462
H	11.71876453	16.80237842	20.19299733
H	12.58470978	17.74865162	19.00139647
H	11.94756089	16.20133140	18.51159791
C	8.80067181	20.85795483	17.51303009
H	8.78127042	20.84090755	16.42857786
H	9.67509717	21.43779905	17.83104225
H	7.94703802	21.38840584	17.88752461
C	6.73251463	16.68983269	19.66020427
H	6.16961168	17.30992741	20.34910258
H	7.22073726	15.86722635	20.16117589
H	6.18597571	16.30225464	18.76529938
C	13.17893047	24.74128446	19.95829633
H	12.63706115	25.66347931	20.27747201
H	12.44840779	23.93343431	19.91410461
H	13.61478175	24.95323982	18.98872728
C	16.97132198	21.69823097	21.26608285
H	16.74216764	21.23501328	20.26139278
H	16.96958263	20.96391916	22.09614877
H	17.96628059	22.12213738	21.03264908
C	15.67692587	25.60680147	24.21309748
H	14.89566898	25.46736804	25.02748991
H	15.69596921	26.63160066	23.93548785
H	16.61226530	25.28551512	24.65790290
C	20.12625437	24.85886967	12.98498938
C	19.28994827	23.21017229	14.55729474
C	17.70503468	24.68969980	13.43822949
C	14.23288848	24.36691975	20.98296614
C	16.00488883	22.80235710	21.61318115
C	15.48833593	24.74828029	23.02754679
C	10.39051925	17.67601867	18.82368560
C	8.87506215	19.46018566	18.04604582
C	7.93995661	17.51521846	19.16718918
H	13.39070563	16.66132029	13.33996171
H	14.24379263	19.96968865	10.56483936
C	13.80229175	18.44398643	12.12220595
C	13.50294450	17.03956424	12.29493784
C	14.02773119	18.89620827	10.82420065

Ti O H C N 0
6-31G*
****

