%chk=f00017954.chk
%mem=24GB
%nproc=12
#p b3lyp/6-31G*

title

0 1
Ti	2.81187400	0.19704000	1.10336000
Ti	0.90594400	5.44057000	1.10336000
Ti	4.71781400	5.44057000	1.10336000
Ti	0.90594400	2.47241000	1.99114000
Ti	4.71781400	2.47241000	1.99114000
Ti	2.81187400	7.71594000	1.99115000
O	2.81187400	8.81302000	0.37332000
O	0.90594400	3.56949000	0.37332000
O	4.71781400	3.56949000	0.37332000
O	0.90594400	0.60134000	1.26110000
O	4.71781400	0.60134000	1.26110000
O	2.81187400	5.84486000	1.26111000
O	2.81187400	2.06812000	1.83340000
O	0.90594400	7.31164000	1.83340000
O	4.71781400	7.31164000	1.83340000
O	0.90594400	4.34349000	2.72118000
O	4.71781400	4.34349000	2.72118000
O	2.81187400	9.58701000	2.72118000
Ti	6.62374588	0.19704000	1.10336000
Ti	21.87123776	0.19704000	1.10336000
Ti	8.52968588	5.44057000	1.10336000
Ti	23.77717776	5.44057000	1.10336000
Ti	8.52968588	2.47241000	1.99114000
Ti	23.77717776	2.47241000	1.99114000
Ti	6.62374588	7.71594000	1.99115000
Ti	21.87123776	7.71594000	1.99115000
Ti	10.43561588	0.19704000	1.10336000
Ti	25.68310776	0.19704000	1.10336000
Ti	14.24749588	0.19704000	1.10336000
Ti	29.49498776	0.19704000	1.10336000
Ti	18.05936588	0.19704000	1.10336000
Ti	12.34155588	5.44057000	1.10336000
Ti	27.58904776	5.44057000	1.10336000
Ti	16.15343588	5.44057000	1.10336000
Ti	19.96530588	5.44057000	1.10336000
Ti	12.34155588	2.47241000	1.99114000
Ti	27.58904776	2.47241000	1.99114000
Ti	16.15343588	2.47241000	1.99114000
Ti	19.96530588	2.47241000	1.99114000
Ti	10.43561588	7.71594000	1.99115000
Ti	25.68310776	7.71594000	1.99115000
Ti	14.24749588	7.71594000	1.99115000
Ti	29.49498776	7.71594000	1.99115000
Ti	18.05936588	7.71594000	1.99115000
O	6.62374588	8.81302000	0.37332000
O	21.87123776	8.81302000	0.37332000
O	8.52968588	3.56949000	0.37332000
O	23.77717776	3.56949000	0.37332000
O	8.52968588	0.60134000	1.26110000
O	23.77717776	0.60134000	1.26110000
O	6.62374588	5.84486000	1.26111000
O	21.87123776	5.84486000	1.26111000
O	6.62374588	2.06812000	1.83340000
O	21.87123776	2.06812000	1.83340000
O	8.52968588	7.31164000	1.83340000
O	23.77717776	7.31164000	1.83340000
O	8.52968588	4.34349000	2.72118000
O	23.77717776	4.34349000	2.72118000
O	6.62374588	9.58701000	2.72118000
O	21.87123776	9.58701000	2.72118000
O	10.43561588	8.81302000	0.37332000
O	25.68310776	8.81302000	0.37332000
O	14.24749588	8.81302000	0.37332000
O	29.49498776	8.81302000	0.37332000
O	18.05936588	8.81302000	0.37332000
O	12.34155588	3.56949000	0.37332000
O	27.58904776	3.56949000	0.37332000
O	16.15343588	3.56949000	0.37332000
O	19.96530588	3.56949000	0.37332000
O	12.34155588	0.60134000	1.26110000
O	27.58904776	0.60134000	1.26110000
O	16.15343588	0.60134000	1.26110000
O	19.96530588	0.60134000	1.26110000
O	10.43561588	5.84486000	1.26111000
O	25.68310776	5.84486000	1.26111000
O	14.24749588	5.84486000	1.26111000
O	29.49498776	5.84486000	1.26111000
O	18.05936588	5.84486000	1.26111000
O	10.43561588	2.06812000	1.83340000
O	25.68310776	2.06812000	1.83340000
O	14.24749588	2.06812000	1.83340000
O	29.49498776	2.06812000	1.83340000
O	18.05936588	2.06812000	1.83340000
O	12.34155588	7.31164000	1.83340000
O	27.58904776	7.31164000	1.83340000
O	16.15343588	7.31164000	1.83340000
O	19.96530588	7.31164000	1.83340000
O	12.34155588	4.34349000	2.72118000
O	27.58904776	4.34349000	2.72118000
O	16.15343588	4.34349000	2.72118000
O	19.96530588	4.34349000	2.72118000
O	10.43561588	9.58701000	2.72118000
O	25.68310776	9.58701000	2.72118000
O	14.24749588	9.58701000	2.72118000
O	29.49498776	9.58701000	2.72118000
O	18.05936588	9.58701000	2.72118000
Ti	2.81187400	10.68408607	1.10336000
Ti	2.81187400	21.17113214	1.10336000
Ti	0.90594400	15.92761607	1.10336000
Ti	0.90594400	26.41466214	1.10336000
Ti	4.71781400	15.92761607	1.10336000
Ti	4.71781400	26.41466214	1.10336000
Ti	0.90594400	12.95945607	1.99114000
Ti	0.90594400	23.44650214	1.99114000
Ti	4.71781400	12.95945607	1.99114000
Ti	4.71781400	23.44650214	1.99114000
Ti	2.81187400	18.20298607	1.99115000
Ti	2.81187400	28.69003214	1.99115000
O	2.81187400	19.30006607	0.37332000
O	2.81187400	29.78711214	0.37332000
O	0.90594400	14.05653607	0.37332000
O	0.90594400	24.54358214	0.37332000
O	4.71781400	14.05653607	0.37332000
O	4.71781400	24.54358214	0.37332000
O	0.90594400	11.08838607	1.26110000
O	0.90594400	21.57543214	1.26110000
O	4.71781400	11.08838607	1.26110000
O	4.71781400	21.57543214	1.26110000
O	2.81187400	16.33190607	1.26111000
O	2.81187400	26.81895214	1.26111000
O	2.81187400	12.55516607	1.83340000
O	2.81187400	23.04221214	1.83340000
O	0.90594400	17.79868607	1.83340000
O	0.90594400	28.28573214	1.83340000
O	4.71781400	17.79868607	1.83340000
O	4.71781400	28.28573214	1.83340000
O	0.90594400	14.83053607	2.72118000
O	0.90594400	25.31758214	2.72118000
O	4.71781400	14.83053607	2.72118000
O	4.71781400	25.31758214	2.72118000
O	2.81187400	20.07405607	2.72118000
O	2.81187400	30.56110214	2.72118000
Ti	6.62374588	10.68408607	1.10336000
Ti	6.62374588	21.17113214	1.10336000
Ti	21.87123776	10.68408607	1.10336000
Ti	21.87123776	21.17113214	1.10336000
Ti	8.52968588	15.92761607	1.10336000
Ti	8.52968588	26.41466214	1.10336000
Ti	23.77717776	15.92761607	1.10336000
Ti	23.77717776	26.41466214	1.10336000
Ti	8.52968588	12.95945607	1.99114000
Ti	8.52968588	23.44650214	1.99114000
Ti	23.77717776	12.95945607	1.99114000
Ti	23.77717776	23.44650214	1.99114000
Ti	6.62374588	18.20298607	1.99115000
Ti	6.62374588	28.69003214	1.99115000
Ti	21.87123776	18.20298607	1.99115000
Ti	21.87123776	28.69003214	1.99115000
Ti	10.43561588	10.68408607	1.10336000
Ti	10.43561588	21.17113214	1.10336000
Ti	25.68310776	10.68408607	1.10336000
Ti	25.68310776	21.17113214	1.10336000
Ti	14.24749588	10.68408607	1.10336000
Ti	14.24749588	21.17113214	1.10336000
Ti	29.49498776	10.68408607	1.10336000
Ti	29.49498776	21.17113214	1.10336000
Ti	18.05936588	10.68408607	1.10336000
Ti	18.05936588	21.17113214	1.10336000
Ti	12.34155588	15.92761607	1.10336000
Ti	12.34155588	26.41466214	1.10336000
Ti	27.58904776	15.92761607	1.10336000
Ti	27.58904776	26.41466214	1.10336000
Ti	16.15343588	15.92761607	1.10336000
Ti	16.15343588	26.41466214	1.10336000
Ti	19.96530588	15.92761607	1.10336000
Ti	19.96530588	26.41466214	1.10336000
Ti	12.34155588	12.95945607	1.99114000
Ti	12.34155588	23.44650214	1.99114000
Ti	27.58904776	12.95945607	1.99114000
Ti	27.58904776	23.44650214	1.99114000
Ti	16.15343588	12.95945607	1.99114000
Ti	16.15343588	23.44650214	1.99114000
Ti	19.96530588	12.95945607	1.99114000
Ti	19.96530588	23.44650214	1.99114000
Ti	10.43561588	18.20298607	1.99115000
Ti	10.43561588	28.69003214	1.99115000
Ti	25.68310776	18.20298607	1.99115000
Ti	25.68310776	28.69003214	1.99115000
Ti	14.24749588	18.20298607	1.99115000
Ti	14.24749588	28.69003214	1.99115000
Ti	29.49498776	18.20298607	1.99115000
Ti	29.49498776	28.69003214	1.99115000
Ti	18.05936588	18.20298607	1.99115000
Ti	18.05936588	28.69003214	1.99115000
O	6.62374588	19.30006607	0.37332000
O	6.62374588	29.78711214	0.37332000
O	21.87123776	19.30006607	0.37332000
O	21.87123776	29.78711214	0.37332000
O	8.52968588	14.05653607	0.37332000
O	8.52968588	24.54358214	0.37332000
O	23.77717776	14.05653607	0.37332000
O	23.77717776	24.54358214	0.37332000
O	8.52968588	11.08838607	1.26110000
O	8.52968588	21.57543214	1.26110000
O	23.77717776	11.08838607	1.26110000
O	23.77717776	21.57543214	1.26110000
O	6.62374588	16.33190607	1.26111000
O	6.62374588	26.81895214	1.26111000
O	21.87123776	16.33190607	1.26111000
O	21.87123776	26.81895214	1.26111000
O	6.62374588	12.55516607	1.83340000
O	6.62374588	23.04221214	1.83340000
O	21.87123776	12.55516607	1.83340000
O	21.87123776	23.04221214	1.83340000
O	8.52968588	17.79868607	1.83340000
O	8.52968588	28.28573214	1.83340000
O	23.77717776	17.79868607	1.83340000
O	23.77717776	28.28573214	1.83340000
O	8.52968588	14.83053607	2.72118000
O	8.52968588	25.31758214	2.72118000
O	23.77717776	14.83053607	2.72118000
O	23.77717776	25.31758214	2.72118000
O	6.62374588	20.07405607	2.72118000
O	6.62374588	30.56110214	2.72118000
O	21.87123776	20.07405607	2.72118000
O	21.87123776	30.56110214	2.72118000
O	10.43561588	19.30006607	0.37332000
O	10.43561588	29.78711214	0.37332000
O	25.68310776	19.30006607	0.37332000
O	25.68310776	29.78711214	0.37332000
O	14.24749588	19.30006607	0.37332000
O	14.24749588	29.78711214	0.37332000
O	29.49498776	19.30006607	0.37332000
O	29.49498776	29.78711214	0.37332000
O	18.05936588	19.30006607	0.37332000
O	18.05936588	29.78711214	0.37332000
O	12.34155588	14.05653607	0.37332000
O	12.34155588	24.54358214	0.37332000
O	27.58904776	14.05653607	0.37332000
O	27.58904776	24.54358214	0.37332000
O	16.15343588	14.05653607	0.37332000
O	16.15343588	24.54358214	0.37332000
O	19.96530588	14.05653607	0.37332000
O	19.96530588	24.54358214	0.37332000
O	12.34155588	11.08838607	1.26110000
O	12.34155588	21.57543214	1.26110000
O	27.58904776	11.08838607	1.26110000
O	27.58904776	21.57543214	1.26110000
O	16.15343588	11.08838607	1.26110000
O	16.15343588	21.57543214	1.26110000
O	19.96530588	11.08838607	1.26110000
O	19.96530588	21.57543214	1.26110000
O	10.43561588	16.33190607	1.26111000
O	10.43561588	26.81895214	1.26111000
O	25.68310776	16.33190607	1.26111000
O	25.68310776	26.81895214	1.26111000
O	14.24749588	16.33190607	1.26111000
O	14.24749588	26.81895214	1.26111000
O	29.49498776	16.33190607	1.26111000
O	29.49498776	26.81895214	1.26111000
O	18.05936588	16.33190607	1.26111000
O	18.05936588	26.81895214	1.26111000
O	10.43561588	12.55516607	1.83340000
O	10.43561588	23.04221214	1.83340000
O	25.68310776	12.55516607	1.83340000
O	25.68310776	23.04221214	1.83340000
O	14.24749588	12.55516607	1.83340000
O	14.24749588	23.04221214	1.83340000
O	29.49498776	12.55516607	1.83340000
O	29.49498776	23.04221214	1.83340000
O	18.05936588	12.55516607	1.83340000
O	18.05936588	23.04221214	1.83340000
O	12.34155588	17.79868607	1.83340000
O	12.34155588	28.28573214	1.83340000
O	27.58904776	17.79868607	1.83340000
O	27.58904776	28.28573214	1.83340000
O	16.15343588	17.79868607	1.83340000
O	16.15343588	28.28573214	1.83340000
O	19.96530588	17.79868607	1.83340000
O	19.96530588	28.28573214	1.83340000
O	12.34155588	14.83053607	2.72118000
O	12.34155588	25.31758214	2.72118000
O	27.58904776	14.83053607	2.72118000
O	27.58904776	25.31758214	2.72118000
O	16.15343588	14.83053607	2.72118000
O	16.15343588	25.31758214	2.72118000
O	19.96530588	14.83053607	2.72118000
O	19.96530588	25.31758214	2.72118000
O	10.43561588	20.07405607	2.72118000
O	10.43561588	30.56110214	2.72118000
O	25.68310776	20.07405607	2.72118000
O	25.68310776	30.56110214	2.72118000
O	14.24749588	20.07405607	2.72118000
O	14.24749588	30.56110214	2.72118000
O	29.49498776	20.07405607	2.72118000
O	29.49498776	30.56110214	2.72118000
O	18.05936588	20.07405607	2.72118000
O	18.05936588	30.56110214	2.72118000
Ti	6.66321747	9.23719128	4.80739927
Ti	6.48776821	6.32529585	5.52478450
Ti	2.69448421	9.29074113	4.78859227
Ti	0.77317665	3.99552259	4.69862470
Ti	4.61189998	3.96167874	4.70319851
Ti	0.83309366	1.00683458	5.47089662
Ti	4.66828283	1.11477175	5.56293883
Ti	2.74626152	6.35426761	5.47666442
O	6.39100222	7.32477387	3.94366541
O	6.49492777	4.39410725	4.94385650
O	6.63507546	0.71632566	5.78406329
O	6.48671299	8.02239722	6.37597870
O	2.67327083	7.34093664	3.88203767
O	0.80100530	2.11127956	3.87843766
O	4.67340602	2.18276920	3.96973224
O	0.86288735	9.57869562	4.91672251
O	4.70011844	9.72028749	4.95847443
O	2.74692522	4.30109168	4.93688215
O	2.74535912	0.48737125	5.92445095
O	0.84107697	5.88091616	5.71075257
O	4.57470927	5.83104194	5.77309961
O	0.86544578	2.71920886	6.26334957
O	4.55469531	2.85727473	6.38877969
O	2.63583897	8.08494006	6.37860677
Ti	21.95431469	9.24083149	4.76020160
Ti	8.36114047	4.05311088	4.71455924
Ti	23.76618135	4.01374817	4.77566683
Ti	8.57431847	1.17388043	5.47832702
Ti	23.77258982	1.05694508	5.51870482
Ti	21.88524235	6.27641376	5.45817891
Ti	10.45337599	9.28000083	4.81155778
Ti	25.75077948	9.19273041	4.73080713
Ti	14.27068126	9.18544477	4.75079341
Ti	29.45938088	9.17283186	4.81102736
Ti	18.14350584	9.27389628	4.69683641
Ti	12.35988452	3.88166924	4.89194485
Ti	27.56174262	3.92487295	4.76690008
Ti	16.11012086	4.07675172	4.68898670
Ti	20.03971516	3.96809679	4.58168815
Ti	12.33507644	1.01211349	5.54003384
Ti	27.61206807	1.02227628	5.41745921
Ti	16.19920253	1.16900217	5.65829886
Ti	19.98316737	1.10812686	5.57640575
Ti	10.40002247	6.34754306	5.44899933
Ti	25.72368729	6.33482523	5.46100917
Ti	14.19042463	6.29216375	5.55956636
Ti	29.39691292	6.20189045	5.45926866
Ti	18.03824348	6.40019229	5.57324050
O	21.93211027	7.34072945	3.95742656
O	8.45695144	2.09057232	3.88462772
O	23.81938350	2.18851682	3.96749727
O	8.55081979	9.61198961	4.86397666
O	23.86943900	9.71591981	4.67037630
O	21.83457296	4.42381699	4.75045358
O	21.89553848	0.57741381	5.80210535
O	8.44424557	5.88204944	5.57406983
O	23.77033900	5.86993162	5.75960444
O	8.55156454	2.86388817	6.31277119
O	23.71908549	2.86816662	6.31039720
O	21.85817964	8.02581246	6.35932764
O	10.44740027	7.39192091	3.94271559
O	25.98009284	7.29271785	3.93513889
O	14.12411243	7.40961011	3.95414502
O	29.44973599	7.26776141	3.96059634
O	18.17732968	7.36312232	3.91392063
O	12.23216769	2.09263647	4.00830696
O	27.65335885	2.09679902	3.85664806
O	16.05731051	2.17300956	4.02028173
O	19.94770944	2.08783341	3.95103414
O	12.41982799	9.67248453	4.70721699
O	27.59299806	9.63938785	4.74842720
O	16.23373076	9.63941587	4.75184000
O	20.03492145	9.76450710	4.65774044
O	10.33512805	4.46449425	4.78600755
O	25.63000409	4.43948537	4.78494853
O	14.24440922	4.45407110	4.90804095
O	29.38792312	4.31767050	4.84583246
O	18.13506851	4.48667692	4.80570191
O	10.43461820	0.55039272	5.87596094
O	25.72202278	0.66079930	5.68562176
O	14.28166898	0.66708411	5.77463647
O	29.49016760	0.48983531	5.85323708
O	18.07200296	0.58194324	5.74318621
O	12.31233110	5.74041228	5.85750830
O	27.47357652	5.71161833	5.85011290
O	16.19777184	5.92386021	5.75948744
O	19.96883431	5.94420503	5.77849148
O	12.17626916	2.79717921	6.42541602
O	27.52173993	2.82029836	6.35955934
O	16.41101273	3.03219558	6.33223859
O	19.96343285	2.91982476	6.27368537
O	10.58050179	8.05260757	6.38978018
O	25.56651919	8.10995484	6.42279121
O	14.18338366	8.09767804	6.44636846
O	29.21541168	8.02062882	6.30722194
O	18.31108733	8.22404830	6.31908528
Ti	6.71269465	19.68074102	4.77418092
Ti	6.61421709	30.12789412	4.74706740
Ti	6.62276976	16.72985519	5.47091437
Ti	6.45551128	27.22929340	5.42975377
Ti	2.76398531	19.65372572	4.69145901
Ti	2.75073706	30.11550152	4.66962791
Ti	0.89124830	14.38643589	4.62449979
Ti	0.93461165	24.91811804	4.79578000
Ti	4.67337706	14.51121577	4.81879470
Ti	4.83532530	24.85561664	4.68404934
Ti	0.84062562	11.53902443	5.59868002
Ti	0.94414358	21.98330883	5.37163077
Ti	4.76057482	11.54704079	5.52329681
Ti	4.75578187	21.95236759	5.41894114
Ti	2.74565143	16.78622441	5.53232601
Ti	2.78561492	27.27877241	5.60248161
O	6.60978023	17.72816744	3.92561472
O	6.48346208	28.28596117	3.91222628
O	6.58691509	14.82668849	4.86963981
O	6.63789837	25.33131467	4.93602699
O	6.63092834	11.04925183	5.71434637
O	6.66734852	21.55827063	5.46863246
O	6.57068185	18.51528120	6.37368248
O	6.49759837	28.99074783	6.29325126
O	2.78274798	17.73857213	3.95662540
O	2.76604727	28.22845889	4.00630331
O	0.81956602	12.47320340	4.01545804
O	0.87855541	23.16410046	3.89372455
O	4.71601583	12.56577784	3.93456260
O	4.67165372	23.03838254	3.93229192
O	0.87562811	20.05156669	4.89597131
O	0.96755199	30.66815906	4.78143110
O	4.69207002	19.99839685	4.75536705
O	4.69157159	30.68383376	4.94393051
O	2.74709605	14.88609157	4.97731592
O	2.84172077	25.44349781	4.78314177
O	2.77994040	11.04469996	5.90392946
O	2.86688975	21.42346677	5.72179658
O	0.83709226	16.78227957	6.15266784
O	0.82533983	26.65649760	5.93763759
O	4.79246411	16.39045111	5.72923660
O	4.70634019	26.65333549	5.80162600
O	0.65625921	13.38957672	6.31077642
O	1.02307053	23.67614271	6.34635091
O	4.86207200	13.32331681	6.48424334
O	4.88247778	23.71659838	6.28120110
O	2.99605596	18.55140216	6.37334359
O	2.89878965	29.01875222	6.32252944
Ti	21.85606179	19.75767625	4.76732872
Ti	21.91888469	30.24975774	4.82192615
Ti	8.53830258	14.50109006	4.68215199
Ti	8.49407657	24.90497318	4.86166555
Ti	23.79423674	14.57745982	4.83811768
Ti	23.71815070	24.95887828	4.78183189
Ti	8.55449130	11.62990955	5.49622366
Ti	8.57225773	21.92437944	5.45095164
Ti	23.79825727	11.60593897	5.50430789
Ti	23.71772943	22.07892430	5.59157371
Ti	21.98548606	16.87851230	5.50975138
Ti	21.90698654	27.33968777	5.45233159
Ti	10.54342716	19.67718269	4.79115494
Ti	10.36113084	30.29167598	4.77299516
Ti	25.56892021	19.70806485	4.69734262
Ti	25.66800221	30.30924260	4.81322197
Ti	14.31865924	19.65038833	4.67920230
Ti	14.28756421	30.24895451	4.80418821
Ti	29.37396805	19.82227074	4.71126789
Ti	29.53765453	30.09546192	4.65714706
Ti	18.14321333	19.85872151	4.73758009
Ti	18.07115150	30.16745404	4.71568234
Ti	12.50260561	14.37139427	4.70400789
Ti	12.42125121	24.89987344	4.72511299
Ti	27.70586983	14.53526313	4.73921934
Ti	27.52704881	25.02816083	4.78743088
Ti	16.20565994	14.47342664	4.85369079
Ti	16.09777127	24.95451077	4.65396502
Ti	19.95947457	14.51713363	4.82618527
Ti	19.92938458	24.99699393	4.75157258
Ti	12.44534263	11.44648883	5.55559621
Ti	12.29339512	22.00783781	5.44037111
Ti	27.62642846	11.57986098	5.44028212
Ti	27.53329715	22.08155319	5.53016387
Ti	16.23111537	11.54517194	5.57921468
Ti	16.13977497	22.07065926	5.57030887
Ti	19.96645834	11.56752700	5.45322335
Ti	19.92471249	22.13737852	5.55954340
Ti	10.43468902	16.80574988	5.54651447
Ti	10.43658179	27.32921851	5.50074926
Ti	25.77548097	16.73983975	5.35643826
Ti	25.66816773	27.35417217	5.51976911
Ti	14.23688607	16.71732014	5.82714175
Ti	14.19564659	27.31773004	5.47832616
Ti	29.49615744	16.98386046	5.62311980
Ti	29.54584734	27.29169177	5.65589354
Ti	18.12026262	16.89674191	5.43945402
Ti	17.95737520	27.29552653	5.50225376
O	21.99324944	17.91175849	3.96585297
O	21.85419976	28.38433210	3.89240287
O	8.60505596	12.55669483	3.95516152
O	8.58159800	23.18020824	3.98068252
O	23.86504848	12.64702914	3.93199922
O	23.79474554	23.08972598	3.97112687
O	8.58151197	20.11882879	4.54619811
O	8.45133644	30.68734275	4.83137460
O	23.74694171	20.11413158	4.76882454
O	23.79588167	30.67282529	4.64881665
O	21.84481414	14.96288652	4.71698688
O	21.85749948	25.49202821	4.72645923
O	21.90043170	11.09206099	5.66293516
O	21.82593925	21.59897174	5.78034502
O	8.56428645	16.39050913	5.67299070
O	8.41955214	26.86744930	5.75864132
O	23.83740939	16.32520457	5.73908731
O	23.77960733	26.74943366	5.84572537
O	8.45622645	13.34742746	6.33328070
O	8.52236587	23.63649534	6.36249556
O	23.85477747	13.26011826	6.43384538
O	23.88049332	23.87403524	6.41393970
O	21.82034394	18.57765736	6.33279678
O	21.88818646	29.05936821	6.34865625
O	10.42549769	17.83691561	4.01595306
O	10.42985724	28.35180663	3.97407486
O	25.62379696	17.77131340	3.87927101
O	25.63832844	28.42002237	3.91805839
O	14.34447967	17.76420258	3.99965528
O	14.21389461	28.40451018	3.93025209
O	29.56214988	17.90246181	3.95764043
O	29.66293116	28.20341141	3.97104000
O	18.24075654	17.89032192	3.91381769
O	18.05978742	28.30381133	3.98248669
O	12.35148109	12.42112500	3.95090313
O	12.49308093	23.11078431	3.92282001
O	27.58062027	12.48829712	3.85652552
O	27.50300655	23.24126379	3.93649943
O	15.97431431	12.63108892	4.01586054
O	16.08116232	23.04521283	3.93609396
O	20.02451515	12.65025239	3.90442289
O	20.08298974	23.15669310	3.97175084
O	12.39779926	20.13025229	4.79401153
O	12.32191475	30.60694084	4.85470804
O	27.51281249	20.17313784	4.65216869
O	27.57969015	30.57386819	4.65384369
O	16.18303116	20.19241491	4.80302804
O	16.16823918	30.73572353	4.75053467
O	19.95572414	20.33754395	4.79774684
O	19.96598862	30.71010790	4.76165119
O	10.46840327	14.96701083	4.74939823
O	10.47357417	25.25872250	4.92529023
O	25.75912868	14.75337274	5.10829512
O	25.67027569	25.50661895	4.66826080
O	14.28121611	14.97720431	4.74572643
O	14.21429876	25.46666166	4.61723680
O	29.61719844	15.02933063	4.80961739
O	29.49606735	25.33825182	5.04171344
O	18.11503369	14.92943921	4.82211252
O	17.95576136	25.43242695	4.77018655
O	10.48459515	11.10133087	5.77150647
O	10.45631040	21.52467806	5.77454706
O	25.70727411	11.16402420	5.66731596
O	25.65016790	21.54181702	5.74918487
O	14.30045943	10.98675133	5.78480265
O	14.22122728	21.46741713	5.80522470
O	29.47647957	11.07984663	5.75409150
O	29.45721273	21.71333825	5.52384266
O	18.09422888	10.88090593	5.88453658
O	18.00915564	21.74378253	5.82420112
O	12.28904831	16.09729091	5.74797210
O	12.34438090	26.82171276	5.62843182
O	27.61101306	16.44489349	5.61331759
O	27.59439956	26.92597858	5.80502130
O	16.27188745	16.46554171	5.47986399
O	15.98994000	26.76592089	5.81499614
O	20.01426105	16.34348030	5.75556175
O	19.90883655	26.82799841	5.56182485
O	12.71607911	13.26005414	6.31851887
O	12.28061169	23.77563889	6.32132194
O	27.87761217	13.27964545	6.29723328
O	27.44497298	23.86240330	6.41364958
O	16.17822775	13.24826656	6.46073788
O	15.91059793	23.90436577	6.31613223
O	20.12324766	13.43221042	6.38740869
O	19.98987949	23.86682360	6.31987928
O	10.54487482	18.56366717	6.42931060
O	10.42214807	29.08271860	6.40173153
O	25.49672335	18.42748327	6.36515467
O	25.64657364	29.06520473	6.33194469
O	13.92281531	18.58935986	6.28084653
O	14.31101631	29.05189432	6.28699698
O	29.14217113	18.74436673	6.34716201
O	29.47395646	29.11154836	6.34072011
O	18.11980892	18.58861205	6.40584210
O	17.91112805	29.03412853	6.38694383
H	14.20384437	13.97372136	8.14494639
H	14.23059369	14.90466633	11.41293105
H	14.75516096	18.43161178	8.84821430
O	14.77084113	16.16859152	7.59460936
O	14.00250910	14.48977662	8.95663342
C	14.41914639	15.69060171	8.83740400
C	14.55200921	16.54749517	9.97755268
C	14.30800077	15.98494017	11.27511118
C	14.70376851	17.93168173	9.83153428
N	12.92226213	19.57127436	15.44523013
N	15.72868230	21.92461458	17.39832851
N	15.88497201	20.30108323	15.01014741
N	12.76944116	21.26409912	17.85716490
C	21.48006333	22.24760470	15.45592394
C	14.73326100	24.30952543	22.69673200
C	7.21349742	19.41402853	17.14748543
C	19.05108082	22.34551175	15.35972836
C	14.21403273	23.83140530	20.34720300
C	9.62604306	19.15006578	17.30429651
C	20.47658407	23.92172172	14.10907057
C	14.34026452	26.15433518	21.18389999
C	8.21386891	17.46057967	18.29057820
C	14.40918460	18.87310036	13.55809877
C	17.65532823	21.81868041	15.76034304
C	14.21466499	22.89801363	19.15260543
C	11.03687472	19.70391709	17.04062441
C	15.60246859	19.59903060	13.85437021
C	17.17448780	20.75888172	14.97081672
C	13.02618331	22.07058648	18.93432833
C	11.54631296	20.69971295	17.90480342
C	16.88439344	19.38817438	13.20804336
C	17.84289201	20.11306305	13.85001348
C	11.81874339	21.99238493	19.72893094
C	10.87373334	21.20871635	19.06883978
C	13.21378799	18.85046677	14.29633997
C	16.94535507	22.35205917	16.87213543
C	15.44605497	22.77417987	18.47956888
C	11.64141655	19.13554871	15.91594664
C	12.13938270	17.93703449	14.05637192
C	17.45298373	23.49639115	17.62683619
C	16.53398777	23.76687303	18.62250577
C	11.21720857	18.07549678	15.02267667
H	12.06652570	17.09268644	13.39317365
H	18.34156982	24.01714055	17.24934229
H	16.53263659	24.68276438	19.19021426
H	10.33035049	17.47025633	15.22984988
H	16.96122048	18.91309669	12.20155352
H	18.88081925	20.29206920	13.54344527
H	11.72778050	22.28723813	20.74806089
H	9.89678261	20.94490616	19.35884712
H	20.55810410	24.79623063	13.44436808
H	14.25337238	27.20119706	21.06655661
H	8.14150429	16.53650572	18.81606579
H	22.32439188	21.66532613	15.83547504
H	15.06675380	23.95147449	23.62188760
H	6.27947944	19.99364507	17.01753506
H	15.13238074	20.60721059	15.67588897
H	13.36629170	21.08444091	17.00305394
C	22.97262494	23.98743675	14.26057465
H	23.46140804	23.31031249	13.57722706
H	23.66741201	24.12494913	15.14863020
H	22.81743857	24.96875896	13.74869775
C	20.15629398	20.45260900	16.55728960
H	19.62016568	19.66662036	15.97418406
H	19.64900117	20.54373728	17.49248575
H	21.15365198	20.02611773	16.73787482
C	18.02398201	23.93882243	13.67628043
H	17.09338136	23.73459892	14.13706963
H	18.09043132	23.59180577	12.63813709
H	18.04811597	25.01260222	13.55387839
C	10.69454120	17.11010526	18.26809644
H	11.17827558	17.46563573	19.18033062
H	11.33601746	17.22098992	17.35474456
H	10.53451983	16.08345452	18.51478745
C	8.67237592	21.09918322	16.06077731
H	9.47002352	20.86469584	15.34428285
H	8.98144428	21.93541833	16.70905024
H	7.76191671	21.37804118	15.51452241
C	5.71315404	17.70521445	18.08728959
H	5.04642649	18.02692068	17.23695360
H	5.21354948	18.19806858	18.99123025
H	5.62692430	16.62240316	18.15483233
C	13.79721259	25.84302506	18.80895272
H	14.69008303	25.57273191	18.13479703
H	13.54705298	26.94610216	18.81529812
H	12.93344058	25.28027584	18.40991367
C	14.86066770	21.95364378	21.89649435
H	15.48175647	21.56959896	21.10577770
H	14.01016040	21.32863758	21.89911759
H	15.47206208	21.80969879	22.81599468
C	14.99413662	26.57797888	23.67792900
H	15.82465870	26.08035159	24.17964461
H	14.16803629	26.66691886	24.38451748
H	15.37151537	27.55365929	23.33202258
C	21.65428291	23.40905307	14.69265245
C	20.22591868	21.70934797	15.77298178
C	19.21316363	23.46877477	14.46892613
C	14.12415780	25.25425232	20.16286123
C	14.59808264	23.41474572	21.64610295
C	14.70454139	25.71848923	22.48797292
C	9.49286291	17.91265159	17.96220918
C	8.50435915	19.89043348	16.94227267
C	7.11593750	18.18038048	17.85098712
H	14.22815157	16.32158416	13.44660781
H	14.95354273	19.76802035	10.88010745
C	14.43532273	18.13691350	12.29512397
C	14.24963351	16.73480175	12.41185839
C	14.65798643	18.70107772	10.97403029

Ti O H C N 0
6-31G*
****

