%chk=f00013660.chk
%mem=24GB
%nproc=12
#p b3lyp/6-31G*

title

0 1
Ti	2.81187400	0.19704000	1.10336000
Ti	0.90594400	5.44057000	1.10336000
Ti	4.71781400	5.44057000	1.10336000
Ti	0.90594400	2.47241000	1.99114000
Ti	4.71781400	2.47241000	1.99114000
Ti	2.81187400	7.71594000	1.99115000
O	2.81187400	8.81302000	0.37332000
O	0.90594400	3.56949000	0.37332000
O	4.71781400	3.56949000	0.37332000
O	0.90594400	0.60134000	1.26110000
O	4.71781400	0.60134000	1.26110000
O	2.81187400	5.84486000	1.26111000
O	2.81187400	2.06812000	1.83340000
O	0.90594400	7.31164000	1.83340000
O	4.71781400	7.31164000	1.83340000
O	0.90594400	4.34349000	2.72118000
O	4.71781400	4.34349000	2.72118000
O	2.81187400	9.58701000	2.72118000
Ti	6.62374588	0.19704000	1.10336000
Ti	21.87123776	0.19704000	1.10336000
Ti	8.52968588	5.44057000	1.10336000
Ti	23.77717776	5.44057000	1.10336000
Ti	8.52968588	2.47241000	1.99114000
Ti	23.77717776	2.47241000	1.99114000
Ti	6.62374588	7.71594000	1.99115000
Ti	21.87123776	7.71594000	1.99115000
Ti	10.43561588	0.19704000	1.10336000
Ti	25.68310776	0.19704000	1.10336000
Ti	14.24749588	0.19704000	1.10336000
Ti	29.49498776	0.19704000	1.10336000
Ti	18.05936588	0.19704000	1.10336000
Ti	12.34155588	5.44057000	1.10336000
Ti	27.58904776	5.44057000	1.10336000
Ti	16.15343588	5.44057000	1.10336000
Ti	19.96530588	5.44057000	1.10336000
Ti	12.34155588	2.47241000	1.99114000
Ti	27.58904776	2.47241000	1.99114000
Ti	16.15343588	2.47241000	1.99114000
Ti	19.96530588	2.47241000	1.99114000
Ti	10.43561588	7.71594000	1.99115000
Ti	25.68310776	7.71594000	1.99115000
Ti	14.24749588	7.71594000	1.99115000
Ti	29.49498776	7.71594000	1.99115000
Ti	18.05936588	7.71594000	1.99115000
O	6.62374588	8.81302000	0.37332000
O	21.87123776	8.81302000	0.37332000
O	8.52968588	3.56949000	0.37332000
O	23.77717776	3.56949000	0.37332000
O	8.52968588	0.60134000	1.26110000
O	23.77717776	0.60134000	1.26110000
O	6.62374588	5.84486000	1.26111000
O	21.87123776	5.84486000	1.26111000
O	6.62374588	2.06812000	1.83340000
O	21.87123776	2.06812000	1.83340000
O	8.52968588	7.31164000	1.83340000
O	23.77717776	7.31164000	1.83340000
O	8.52968588	4.34349000	2.72118000
O	23.77717776	4.34349000	2.72118000
O	6.62374588	9.58701000	2.72118000
O	21.87123776	9.58701000	2.72118000
O	10.43561588	8.81302000	0.37332000
O	25.68310776	8.81302000	0.37332000
O	14.24749588	8.81302000	0.37332000
O	29.49498776	8.81302000	0.37332000
O	18.05936588	8.81302000	0.37332000
O	12.34155588	3.56949000	0.37332000
O	27.58904776	3.56949000	0.37332000
O	16.15343588	3.56949000	0.37332000
O	19.96530588	3.56949000	0.37332000
O	12.34155588	0.60134000	1.26110000
O	27.58904776	0.60134000	1.26110000
O	16.15343588	0.60134000	1.26110000
O	19.96530588	0.60134000	1.26110000
O	10.43561588	5.84486000	1.26111000
O	25.68310776	5.84486000	1.26111000
O	14.24749588	5.84486000	1.26111000
O	29.49498776	5.84486000	1.26111000
O	18.05936588	5.84486000	1.26111000
O	10.43561588	2.06812000	1.83340000
O	25.68310776	2.06812000	1.83340000
O	14.24749588	2.06812000	1.83340000
O	29.49498776	2.06812000	1.83340000
O	18.05936588	2.06812000	1.83340000
O	12.34155588	7.31164000	1.83340000
O	27.58904776	7.31164000	1.83340000
O	16.15343588	7.31164000	1.83340000
O	19.96530588	7.31164000	1.83340000
O	12.34155588	4.34349000	2.72118000
O	27.58904776	4.34349000	2.72118000
O	16.15343588	4.34349000	2.72118000
O	19.96530588	4.34349000	2.72118000
O	10.43561588	9.58701000	2.72118000
O	25.68310776	9.58701000	2.72118000
O	14.24749588	9.58701000	2.72118000
O	29.49498776	9.58701000	2.72118000
O	18.05936588	9.58701000	2.72118000
Ti	2.81187400	10.68408607	1.10336000
Ti	2.81187400	21.17113214	1.10336000
Ti	0.90594400	15.92761607	1.10336000
Ti	0.90594400	26.41466214	1.10336000
Ti	4.71781400	15.92761607	1.10336000
Ti	4.71781400	26.41466214	1.10336000
Ti	0.90594400	12.95945607	1.99114000
Ti	0.90594400	23.44650214	1.99114000
Ti	4.71781400	12.95945607	1.99114000
Ti	4.71781400	23.44650214	1.99114000
Ti	2.81187400	18.20298607	1.99115000
Ti	2.81187400	28.69003214	1.99115000
O	2.81187400	19.30006607	0.37332000
O	2.81187400	29.78711214	0.37332000
O	0.90594400	14.05653607	0.37332000
O	0.90594400	24.54358214	0.37332000
O	4.71781400	14.05653607	0.37332000
O	4.71781400	24.54358214	0.37332000
O	0.90594400	11.08838607	1.26110000
O	0.90594400	21.57543214	1.26110000
O	4.71781400	11.08838607	1.26110000
O	4.71781400	21.57543214	1.26110000
O	2.81187400	16.33190607	1.26111000
O	2.81187400	26.81895214	1.26111000
O	2.81187400	12.55516607	1.83340000
O	2.81187400	23.04221214	1.83340000
O	0.90594400	17.79868607	1.83340000
O	0.90594400	28.28573214	1.83340000
O	4.71781400	17.79868607	1.83340000
O	4.71781400	28.28573214	1.83340000
O	0.90594400	14.83053607	2.72118000
O	0.90594400	25.31758214	2.72118000
O	4.71781400	14.83053607	2.72118000
O	4.71781400	25.31758214	2.72118000
O	2.81187400	20.07405607	2.72118000
O	2.81187400	30.56110214	2.72118000
Ti	6.62374588	10.68408607	1.10336000
Ti	6.62374588	21.17113214	1.10336000
Ti	21.87123776	10.68408607	1.10336000
Ti	21.87123776	21.17113214	1.10336000
Ti	8.52968588	15.92761607	1.10336000
Ti	8.52968588	26.41466214	1.10336000
Ti	23.77717776	15.92761607	1.10336000
Ti	23.77717776	26.41466214	1.10336000
Ti	8.52968588	12.95945607	1.99114000
Ti	8.52968588	23.44650214	1.99114000
Ti	23.77717776	12.95945607	1.99114000
Ti	23.77717776	23.44650214	1.99114000
Ti	6.62374588	18.20298607	1.99115000
Ti	6.62374588	28.69003214	1.99115000
Ti	21.87123776	18.20298607	1.99115000
Ti	21.87123776	28.69003214	1.99115000
Ti	10.43561588	10.68408607	1.10336000
Ti	10.43561588	21.17113214	1.10336000
Ti	25.68310776	10.68408607	1.10336000
Ti	25.68310776	21.17113214	1.10336000
Ti	14.24749588	10.68408607	1.10336000
Ti	14.24749588	21.17113214	1.10336000
Ti	29.49498776	10.68408607	1.10336000
Ti	29.49498776	21.17113214	1.10336000
Ti	18.05936588	10.68408607	1.10336000
Ti	18.05936588	21.17113214	1.10336000
Ti	12.34155588	15.92761607	1.10336000
Ti	12.34155588	26.41466214	1.10336000
Ti	27.58904776	15.92761607	1.10336000
Ti	27.58904776	26.41466214	1.10336000
Ti	16.15343588	15.92761607	1.10336000
Ti	16.15343588	26.41466214	1.10336000
Ti	19.96530588	15.92761607	1.10336000
Ti	19.96530588	26.41466214	1.10336000
Ti	12.34155588	12.95945607	1.99114000
Ti	12.34155588	23.44650214	1.99114000
Ti	27.58904776	12.95945607	1.99114000
Ti	27.58904776	23.44650214	1.99114000
Ti	16.15343588	12.95945607	1.99114000
Ti	16.15343588	23.44650214	1.99114000
Ti	19.96530588	12.95945607	1.99114000
Ti	19.96530588	23.44650214	1.99114000
Ti	10.43561588	18.20298607	1.99115000
Ti	10.43561588	28.69003214	1.99115000
Ti	25.68310776	18.20298607	1.99115000
Ti	25.68310776	28.69003214	1.99115000
Ti	14.24749588	18.20298607	1.99115000
Ti	14.24749588	28.69003214	1.99115000
Ti	29.49498776	18.20298607	1.99115000
Ti	29.49498776	28.69003214	1.99115000
Ti	18.05936588	18.20298607	1.99115000
Ti	18.05936588	28.69003214	1.99115000
O	6.62374588	19.30006607	0.37332000
O	6.62374588	29.78711214	0.37332000
O	21.87123776	19.30006607	0.37332000
O	21.87123776	29.78711214	0.37332000
O	8.52968588	14.05653607	0.37332000
O	8.52968588	24.54358214	0.37332000
O	23.77717776	14.05653607	0.37332000
O	23.77717776	24.54358214	0.37332000
O	8.52968588	11.08838607	1.26110000
O	8.52968588	21.57543214	1.26110000
O	23.77717776	11.08838607	1.26110000
O	23.77717776	21.57543214	1.26110000
O	6.62374588	16.33190607	1.26111000
O	6.62374588	26.81895214	1.26111000
O	21.87123776	16.33190607	1.26111000
O	21.87123776	26.81895214	1.26111000
O	6.62374588	12.55516607	1.83340000
O	6.62374588	23.04221214	1.83340000
O	21.87123776	12.55516607	1.83340000
O	21.87123776	23.04221214	1.83340000
O	8.52968588	17.79868607	1.83340000
O	8.52968588	28.28573214	1.83340000
O	23.77717776	17.79868607	1.83340000
O	23.77717776	28.28573214	1.83340000
O	8.52968588	14.83053607	2.72118000
O	8.52968588	25.31758214	2.72118000
O	23.77717776	14.83053607	2.72118000
O	23.77717776	25.31758214	2.72118000
O	6.62374588	20.07405607	2.72118000
O	6.62374588	30.56110214	2.72118000
O	21.87123776	20.07405607	2.72118000
O	21.87123776	30.56110214	2.72118000
O	10.43561588	19.30006607	0.37332000
O	10.43561588	29.78711214	0.37332000
O	25.68310776	19.30006607	0.37332000
O	25.68310776	29.78711214	0.37332000
O	14.24749588	19.30006607	0.37332000
O	14.24749588	29.78711214	0.37332000
O	29.49498776	19.30006607	0.37332000
O	29.49498776	29.78711214	0.37332000
O	18.05936588	19.30006607	0.37332000
O	18.05936588	29.78711214	0.37332000
O	12.34155588	14.05653607	0.37332000
O	12.34155588	24.54358214	0.37332000
O	27.58904776	14.05653607	0.37332000
O	27.58904776	24.54358214	0.37332000
O	16.15343588	14.05653607	0.37332000
O	16.15343588	24.54358214	0.37332000
O	19.96530588	14.05653607	0.37332000
O	19.96530588	24.54358214	0.37332000
O	12.34155588	11.08838607	1.26110000
O	12.34155588	21.57543214	1.26110000
O	27.58904776	11.08838607	1.26110000
O	27.58904776	21.57543214	1.26110000
O	16.15343588	11.08838607	1.26110000
O	16.15343588	21.57543214	1.26110000
O	19.96530588	11.08838607	1.26110000
O	19.96530588	21.57543214	1.26110000
O	10.43561588	16.33190607	1.26111000
O	10.43561588	26.81895214	1.26111000
O	25.68310776	16.33190607	1.26111000
O	25.68310776	26.81895214	1.26111000
O	14.24749588	16.33190607	1.26111000
O	14.24749588	26.81895214	1.26111000
O	29.49498776	16.33190607	1.26111000
O	29.49498776	26.81895214	1.26111000
O	18.05936588	16.33190607	1.26111000
O	18.05936588	26.81895214	1.26111000
O	10.43561588	12.55516607	1.83340000
O	10.43561588	23.04221214	1.83340000
O	25.68310776	12.55516607	1.83340000
O	25.68310776	23.04221214	1.83340000
O	14.24749588	12.55516607	1.83340000
O	14.24749588	23.04221214	1.83340000
O	29.49498776	12.55516607	1.83340000
O	29.49498776	23.04221214	1.83340000
O	18.05936588	12.55516607	1.83340000
O	18.05936588	23.04221214	1.83340000
O	12.34155588	17.79868607	1.83340000
O	12.34155588	28.28573214	1.83340000
O	27.58904776	17.79868607	1.83340000
O	27.58904776	28.28573214	1.83340000
O	16.15343588	17.79868607	1.83340000
O	16.15343588	28.28573214	1.83340000
O	19.96530588	17.79868607	1.83340000
O	19.96530588	28.28573214	1.83340000
O	12.34155588	14.83053607	2.72118000
O	12.34155588	25.31758214	2.72118000
O	27.58904776	14.83053607	2.72118000
O	27.58904776	25.31758214	2.72118000
O	16.15343588	14.83053607	2.72118000
O	16.15343588	25.31758214	2.72118000
O	19.96530588	14.83053607	2.72118000
O	19.96530588	25.31758214	2.72118000
O	10.43561588	20.07405607	2.72118000
O	10.43561588	30.56110214	2.72118000
O	25.68310776	20.07405607	2.72118000
O	25.68310776	30.56110214	2.72118000
O	14.24749588	20.07405607	2.72118000
O	14.24749588	30.56110214	2.72118000
O	29.49498776	20.07405607	2.72118000
O	29.49498776	30.56110214	2.72118000
O	18.05936588	20.07405607	2.72118000
O	18.05936588	30.56110214	2.72118000
Ti	6.64403324	9.22039072	4.81643034
Ti	6.68431599	6.37409979	5.65489215
Ti	2.89107058	9.28652769	4.76603152
Ti	0.99690495	4.04957257	4.73038346
Ti	4.77007544	3.90064410	4.78354058
Ti	0.91692620	1.10713974	5.53997223
Ti	4.65841790	1.04377943	5.50886769
Ti	2.84165763	6.41526389	5.62548406
O	6.58193139	7.45928013	4.09123941
O	6.64459987	4.43311091	4.88116200
O	6.59973446	0.57684124	5.74127576
O	6.52579651	8.12042155	6.49268627
O	2.91380524	7.32580557	3.92687505
O	0.90118387	2.03475303	3.92773645
O	4.93217813	2.11411848	3.97723191
O	0.90370820	9.58646357	4.79942167
O	4.79559060	9.75566241	4.97950051
O	2.94551853	4.51285653	4.63925929
O	2.75665742	0.54433449	5.92794111
O	1.01029696	5.79323325	5.89746593
O	4.77233637	6.00837366	6.01472030
O	0.95048604	2.83166085	6.34722420
O	4.83311311	2.77254672	6.41195133
O	2.83140668	8.17193930	6.40289568
Ti	21.97939304	9.17838393	4.63452834
Ti	8.60260538	4.01355880	4.78283579
Ti	23.75725287	4.01599166	4.62985186
Ti	8.42710361	1.07304614	5.61267817
Ti	23.66424470	1.06657052	5.48824128
Ti	21.93574921	6.28274430	5.56153569
Ti	10.54536103	9.25636516	4.68801083
Ti	25.76535515	9.24489045	4.76716330
Ti	14.27767525	9.24131914	4.75241541
Ti	29.50557585	9.24728970	4.80944198
Ti	18.19397195	9.30684764	4.68025121
Ti	12.47501492	4.00695901	4.75688225
Ti	27.70545157	4.00183908	4.86802831
Ti	16.16227848	3.86156253	4.75014737
Ti	19.93452506	4.00115304	4.83418395
Ti	12.32587947	1.04090550	5.49861186
Ti	27.67779560	1.05674600	5.60766704
Ti	16.12587309	1.03970550	5.52557909
Ti	19.87397099	1.01328894	5.52495810
Ti	10.55517580	6.37690101	5.51873657
Ti	25.65030006	6.28392235	5.57726844
Ti	14.35297730	6.38276663	5.60508358
Ti	29.59258108	6.28781074	5.52801061
Ti	18.01475871	6.35092657	5.49374836
O	22.03501369	7.39594616	3.92739392
O	8.51691106	2.07234765	3.99596542
O	23.81470819	2.13049091	3.93555804
O	8.52100134	9.66029563	4.64204184
O	23.79404974	9.63658065	4.75589030
O	21.83856690	4.35942990	4.74192438
O	21.73071288	0.61884929	5.72737571
O	8.58263204	5.83219101	5.83617093
O	23.76848823	5.81455218	5.72800930
O	8.32093104	2.90931185	6.44305218
O	23.77631440	2.92599007	6.33706036
O	21.89133345	8.04015094	6.39445091
O	10.43969057	7.26522941	3.94790173
O	25.77367235	7.26475705	3.97459660
O	14.36842757	7.33326085	3.92498816
O	29.38000309	7.39092073	4.03572844
O	18.05503349	7.37145484	3.91533129
O	12.38479368	2.21910053	3.99236735
O	27.55494513	2.17916227	4.04338887
O	16.13780860	2.15024699	3.96616865
O	19.93425473	2.04878081	3.93387379
O	12.42086974	9.67540554	4.62857736
O	27.61076515	9.77244531	5.03742599
O	16.18243143	9.54267607	4.79178342
O	20.04565531	9.69366731	4.73717243
O	10.57041618	4.38720821	4.95090925
O	25.70308011	4.31815627	4.85643065
O	14.28018862	4.41048779	4.69452508
O	29.56075582	4.39053139	4.97440793
O	17.98537924	4.41409608	4.57267798
O	10.44826595	0.74913750	5.67209468
O	25.66186083	0.63910189	5.72716187
O	14.22560464	0.58099467	5.81672847
O	29.52603641	0.52173240	5.78000859
O	18.01771914	0.50611361	5.98829907
O	12.48949216	5.78360089	5.96683177
O	27.61179937	5.77559579	5.68806918
O	16.13234048	5.74069772	5.97786319
O	19.93750125	5.87809395	5.59917558
O	12.41230383	2.79589610	6.41948034
O	27.55756299	2.84783314	6.43639627
O	16.32922458	2.79536529	6.37247094
O	19.78844583	2.81515410	6.33981698
O	10.58072943	8.01376417	6.30672316
O	25.61588589	8.02513096	6.38708669
O	14.17091230	8.12348953	6.38735943
O	29.59472831	8.04835773	6.47419488
O	18.12515095	8.10129349	6.28892760
Ti	6.73787949	19.74094505	4.67709045
Ti	6.63536895	30.15820063	4.76913240
Ti	6.60131965	16.87438871	5.45904718
Ti	6.59146766	27.27353872	5.44169305
Ti	2.88012305	19.72319275	4.79384459
Ti	2.84043053	30.22230846	4.78422393
Ti	0.83505017	14.47538883	4.80525301
Ti	0.91817405	24.86960097	4.88897959
Ti	4.70340315	14.55333377	4.65366478
Ti	4.60871609	24.82813888	4.80770581
Ti	0.95780012	11.54679558	5.46251787
Ti	0.94803032	21.95378645	5.47253573
Ti	4.79362472	11.68216416	5.52855702
Ti	4.83762614	21.98133317	5.68077610
Ti	2.68826105	16.82374238	5.52653448
Ti	2.72187272	27.27329864	5.48294058
O	6.72130160	17.81491589	3.93293865
O	6.55070789	28.38935174	3.89909410
O	6.56117622	14.97880063	4.71587829
O	6.65276901	25.36877478	4.73207008
O	6.76391537	11.19544542	5.95504349
O	6.73356657	21.39624513	5.76963660
O	6.46598967	18.54485984	6.33693696
O	6.56770556	29.09152137	6.34252127
O	2.91540871	17.86825026	3.94242509
O	2.64616927	28.29417268	3.83849204
O	0.78379335	12.62392404	3.92918077
O	0.89958356	23.04343949	3.92430374
O	4.75852300	12.74619328	3.96772861
O	4.70758167	23.08014158	4.01147165
O	0.97076022	20.04116888	4.63395045
O	0.92082710	30.62332882	4.76137756
O	4.71877350	20.22936285	4.68074143
O	4.69444440	30.65546508	4.79381392
O	2.68455398	15.06152650	4.69327456
O	2.76324847	25.38376939	4.78236754
O	2.85401340	11.20193049	5.62489122
O	2.82008062	21.47595970	5.82116500
O	0.82679766	16.20662267	5.95039339
O	0.93644640	26.68771087	5.98765944
O	4.62759725	16.35509959	5.69693071
O	4.60875186	26.71155116	5.84927477
O	0.85631285	13.41125906	6.35107606
O	0.91123174	23.62501393	6.37125703
O	4.57131520	13.43045568	6.35971173
O	4.64239532	23.73129298	6.40255704
O	2.77589740	18.56984527	6.35677073
O	2.82396941	29.00858524	6.28142552
Ti	21.90583838	19.77660395	4.70985549
Ti	21.84276241	30.23771372	4.75466975
Ti	8.45879616	14.49266104	4.89287072
Ti	8.56536219	24.90329236	4.70686973
Ti	23.83119993	14.27965902	4.65982276
Ti	23.79612245	24.92870059	4.76437906
Ti	8.62938533	11.54843639	5.38947188
Ti	8.66655290	22.02057897	5.47703364
Ti	23.84196784	11.51250243	5.47861807
Ti	23.91411572	22.06846671	5.50204648
Ti	21.89609164	16.83375052	5.52522972
Ti	21.82554708	27.22903620	5.34145871
Ti	10.57752255	19.59999057	4.70415306
Ti	10.47037248	30.24609562	4.73803631
Ti	25.86802134	19.72517119	4.79351813
Ti	25.56869683	30.20490306	4.74483623
Ti	14.27655648	19.54191849	4.68545441
Ti	14.16279253	30.22049181	4.81491967
Ti	29.60663343	19.61537653	4.79509439
Ti	29.44891187	30.24794914	4.76486801
Ti	18.01043504	19.68154882	4.70697922
Ti	18.00347346	30.18888062	4.79502722
Ti	12.43387238	14.48536332	4.69818075
Ti	12.33400203	25.04250640	4.71149829
Ti	27.59478641	14.52663313	4.72284303
Ti	27.65122873	25.01074026	4.75350921
Ti	16.18200728	14.35365786	4.74675997
Ti	16.20376184	24.93797335	4.80396288
Ti	20.04007886	14.41067972	4.75638619
Ti	19.93742313	24.95553170	4.60715625
Ti	12.38162630	11.52928147	5.40802242
Ti	12.42953718	22.09861245	5.41537260
Ti	27.74124502	11.68279614	5.53869579
Ti	27.69251454	21.99184460	5.49711271
Ti	16.23439192	11.49611165	5.59009523
Ti	16.02537567	21.96339952	5.44095909
Ti	20.07960642	11.53145260	5.54986352
Ti	19.95138054	22.06718562	5.47711188
Ti	10.39051434	16.71804236	5.44989578
Ti	10.41280495	27.30659134	5.47729042
Ti	25.63302478	16.80862534	5.51775884
Ti	25.67123700	27.26717683	5.53333608
Ti	14.31851923	16.70341249	5.73548623
Ti	14.36422637	27.26431471	5.44565036
Ti	29.47226153	16.72921726	5.47056852
Ti	29.56376654	27.27869003	5.51533470
Ti	18.22640861	16.78401826	5.55414453
Ti	18.10541651	27.27060322	5.48549349
O	21.93008037	17.84238957	3.83947616
O	21.80364955	28.34679056	3.85805619
O	8.53793639	12.72194715	3.89845123
O	8.51657619	23.04916626	3.92571585
O	23.65553940	12.46661203	3.81639229
O	23.75488320	23.13425246	3.91983688
O	8.58212298	20.11917979	4.69061870
O	8.55065926	30.62879646	4.92766861
O	23.88336530	20.08854929	4.93953349
O	23.72141366	30.65980709	4.80906914
O	21.92814355	14.94808417	4.81471104
O	21.89919512	25.40090124	4.64653931
O	21.93674028	10.96576517	5.96607146
O	21.95476429	21.73261987	5.49280208
O	8.51023847	16.25426936	5.80936174
O	8.50992227	26.83381965	5.75029087
O	23.75410857	16.77434405	6.24408456
O	23.79256687	26.78930430	5.82173444
O	8.64661802	13.31830711	6.36250827
O	8.48232365	23.75220433	6.38121931
O	23.57256574	13.32742713	6.32783748
O	23.79940559	23.79634401	6.36354999
O	21.77420873	18.68455793	6.23937435
O	21.54198127	28.87440010	6.28358138
O	10.50200524	17.79697249	3.88337647
O	10.35158865	28.31961934	3.92074092
O	25.62724253	17.90356209	4.02231687
O	25.70899191	28.36567514	3.90313477
O	14.10613121	17.72494756	3.98057912
O	14.10895830	28.33963730	3.90281217
O	29.57370388	17.81076350	3.89895276
O	29.46858799	28.26264577	3.86587081
O	18.23152517	17.82297246	3.95868166
O	17.98491753	28.37338568	3.97034176
O	12.32715294	12.53566884	3.84816032
O	12.20130671	23.17950852	3.91094772
O	27.78187721	12.63034984	3.90078432
O	27.74445852	23.10714691	3.96912543
O	16.19996795	12.50705090	3.98901089
O	16.20021354	23.00483254	3.91325720
O	19.88566941	12.56112142	3.93701263
O	19.75048732	23.05824271	3.87729055
O	12.47052854	20.13587816	4.82809094
O	12.29621016	30.71859545	4.77566131
O	27.77838971	20.14337700	4.72932068
O	27.55150591	30.59916937	4.75538722
O	16.18383152	20.07665087	4.72397665
O	16.13353364	30.61797989	4.68218434
O	19.96662939	20.20729693	4.67362644
O	19.86682411	30.58763313	4.82204176
O	10.44889777	14.76093240	4.71634212
O	10.45135350	25.42638194	4.65535641
O	25.65159594	14.91126507	4.86870672
O	25.75221879	25.30202841	4.79030387
O	14.42729459	14.79677829	4.91340370
O	14.25257420	25.34865295	4.74041441
O	29.49472531	14.88835262	4.69060165
O	29.47928230	25.37384445	4.83653640
O	18.13885369	14.84179565	4.93916961
O	18.04123365	25.34331232	4.92259488
O	10.47397588	11.09380446	5.66997490
O	10.51483516	21.47630268	5.48695805
O	25.73045512	11.15636205	5.68149240
O	25.79154094	21.60250344	5.96503279
O	14.31242687	11.07102481	5.65331391
O	14.19556279	21.55233669	5.77227918
O	29.63173092	11.11961293	5.82088512
O	29.57115592	21.47175988	5.94299620
O	18.08760464	11.08173269	5.84971610
O	18.02656351	21.56700213	5.66603303
O	12.40254875	16.26389879	5.62109614
O	12.31600619	26.85594702	5.85744890
O	27.56426754	16.41259528	5.68054861
O	27.64142581	26.77040125	5.82331099
O	16.27781306	16.32953449	5.69439562
O	16.25913491	26.71323415	5.86197353
O	20.01484827	16.16475828	5.90594654
O	19.87903312	26.69275657	5.74484792
O	12.57147982	13.32698609	6.24193025
O	12.27680817	23.79764996	6.25833268
O	27.53928437	13.40837496	6.26773164
O	27.75350275	23.85961305	6.31249804
O	16.13266807	13.21192132	6.35339286
O	16.15590846	23.71455040	6.27383396
O	20.21329143	13.23619484	6.39843030
O	20.17303297	23.75806698	6.28125799
O	10.31642143	18.53686620	6.26471713
O	10.63868905	29.03614994	6.32933983
O	25.88439019	18.58676473	6.31930338
O	25.69791160	28.93992108	6.40055410
O	14.52825070	18.52176023	6.35834598
O	14.05325253	29.04032760	6.33354379
O	29.69199857	18.60028261	6.34910018
O	29.51277739	29.00137334	6.36300439
O	18.40485311	18.48237181	6.27944321
O	17.89503918	28.93841608	6.38937192
H	15.98341239	14.33455890	7.87516637
H	16.39437532	15.55530111	11.11925851
H	13.61307584	18.03612774	8.79939182
O	14.32864926	15.99981940	7.61459997
O	15.98256110	14.87384685	8.71377042
C	15.13945935	15.84634333	8.67195833
C	14.98032818	16.70178292	9.83692308
C	15.75086658	16.50096027	10.99830428
C	14.16444956	17.77663705	9.74913323
N	13.31629468	19.35213685	15.40912534
N	14.93575719	22.82005277	17.07622034
N	15.43668154	21.32249450	14.57261658
N	12.86794535	20.89054005	17.87859781
C	20.53359400	23.87938017	15.95262074
C	12.52842046	24.43281163	22.46986641
C	8.26917208	16.99646933	17.52315605
C	18.13614305	23.82453438	15.45487607
C	12.98586855	23.94067644	20.16850170
C	10.65083324	17.71677369	17.67804523
C	19.56139391	25.61847017	14.62445487
C	11.61398409	25.82509369	20.74472772
C	9.82247944	15.70694898	18.82521508
C	14.62353835	19.29074472	13.27782858
C	16.89481305	23.03515702	15.53660094
C	13.42669265	23.01365740	19.07894944
C	11.72687419	18.75458536	17.25328115
C	15.43981673	20.43451129	13.52468552
C	16.52825928	22.16915530	14.48763965
C	12.70532550	21.83231149	18.87421597
C	11.94810561	19.86230591	18.07827815
C	16.40976776	20.94347384	12.56883306
C	17.09560406	22.00764575	13.19017210
C	11.66737012	21.38950973	19.75089707
C	11.26147489	20.11532338	19.35297065
C	13.59198884	18.80435519	14.15214324
C	16.11659708	23.34784167	16.70165304
C	14.51495578	23.45102639	18.23408898
C	12.33842468	18.57220011	16.01672177
C	12.62286842	17.72654204	13.87617494
C	16.50790893	24.37539943	17.69602625
C	15.45888726	24.47954491	18.58412231
C	11.94989754	17.54658684	15.09610535
H	12.46326693	17.10442215	13.00262132
H	17.43235904	24.91852501	17.72579519
H	15.42196280	24.97163993	19.55890280
H	11.03041400	16.95754286	15.20902208
H	16.57291080	20.45903688	11.62121018
H	18.01280804	22.58701949	12.82959515
H	11.37963995	21.78052839	20.74308848
H	10.51358914	19.55399242	19.88905310
H	19.71544688	26.47741329	13.96086154
H	11.03508232	26.69530301	20.34208634
H	9.93271277	14.90326041	19.58160373
H	21.43716550	23.36570136	16.26848290
H	12.72593448	24.15037816	23.52813612
H	7.24295072	17.19255983	17.14218860
H	14.84152947	21.29205400	15.40193742
H	13.50497068	20.84968159	17.07824978
C	21.99705579	25.79724234	15.13976953
H	22.75533661	25.30950844	15.83368529
H	21.87925216	26.82680631	15.48849465
H	22.44127107	25.69326788	14.06004050
C	19.16314331	21.98791071	16.74898537
H	18.70757598	21.19310494	16.15264220
H	18.52295558	22.09910854	17.63009931
H	20.12751378	21.66925432	17.18780248
C	17.15190315	25.60653487	13.91277426
H	16.62210864	26.40014667	14.44725957
H	16.40239581	24.88360183	13.58626942
H	17.54689050	26.04598534	12.96345960
C	12.32984973	16.26311844	18.89138815
H	12.65123053	16.93981973	19.70811487
H	12.94843635	16.58571820	18.04135144
H	12.46289982	15.22035808	19.20552189
C	9.13884655	19.01291835	16.21907751
H	8.06380327	19.29825871	16.13133563
H	9.40079316	18.63127006	15.18663683
H	9.77896915	19.86926784	16.45131585
C	7.41001952	14.97216028	18.64236528
H	7.77551736	14.27096564	19.42339352
H	7.09233773	14.42515502	17.72693351
H	6.55222336	15.51038434	19.05643854
C	11.94389274	25.25245113	18.29902120
H	12.08410243	26.29170884	17.97258103
H	10.90733450	25.03655329	17.97582765
H	12.57420013	24.61308039	17.64022691
C	13.87447822	22.38777506	21.96692256
H	14.83606510	22.38312604	21.60674883
H	13.43220930	21.40754995	21.66629873
H	13.82922718	22.35473791	23.04323139
C	11.33354382	26.54540838	23.09859324
H	10.85558974	27.37878834	22.58649971
H	12.17425744	26.93937628	23.66050825
H	10.56402437	25.98732168	23.75154934
C	20.68009213	25.07283572	15.25318040
C	19.28061085	23.28048160	16.03030771
C	18.30158552	25.02100257	14.72757289
C	12.18518727	24.98582012	19.73463177
C	13.07964987	23.58999373	21.51929155
C	11.86673100	25.59346669	22.07026138
C	10.90864676	16.54688792	18.43920465
C	9.30131261	17.94474680	17.20854937
C	8.52248264	15.89091828	18.33707672
H	16.20900983	17.15470217	13.03626285
H	13.40363561	19.51600429	10.75813466
C	14.77119486	18.41549484	12.00164856
C	15.67111686	17.33306588	12.06813369
C	14.07820316	18.65069556	10.80912874

Ti O H C N 0
6-31G*
****

