%chk=f00012908.chk
%mem=24GB
%nproc=12
#p b3lyp/6-31G*

title

0 1
Ti	2.81187400	0.19704000	1.10336000
Ti	0.90594400	5.44057000	1.10336000
Ti	4.71781400	5.44057000	1.10336000
Ti	0.90594400	2.47241000	1.99114000
Ti	4.71781400	2.47241000	1.99114000
Ti	2.81187400	7.71594000	1.99115000
O	2.81187400	8.81302000	0.37332000
O	0.90594400	3.56949000	0.37332000
O	4.71781400	3.56949000	0.37332000
O	0.90594400	0.60134000	1.26110000
O	4.71781400	0.60134000	1.26110000
O	2.81187400	5.84486000	1.26111000
O	2.81187400	2.06812000	1.83340000
O	0.90594400	7.31164000	1.83340000
O	4.71781400	7.31164000	1.83340000
O	0.90594400	4.34349000	2.72118000
O	4.71781400	4.34349000	2.72118000
O	2.81187400	9.58701000	2.72118000
Ti	6.62374588	0.19704000	1.10336000
Ti	21.87123776	0.19704000	1.10336000
Ti	8.52968588	5.44057000	1.10336000
Ti	23.77717776	5.44057000	1.10336000
Ti	8.52968588	2.47241000	1.99114000
Ti	23.77717776	2.47241000	1.99114000
Ti	6.62374588	7.71594000	1.99115000
Ti	21.87123776	7.71594000	1.99115000
Ti	10.43561588	0.19704000	1.10336000
Ti	25.68310776	0.19704000	1.10336000
Ti	14.24749588	0.19704000	1.10336000
Ti	29.49498776	0.19704000	1.10336000
Ti	18.05936588	0.19704000	1.10336000
Ti	12.34155588	5.44057000	1.10336000
Ti	27.58904776	5.44057000	1.10336000
Ti	16.15343588	5.44057000	1.10336000
Ti	19.96530588	5.44057000	1.10336000
Ti	12.34155588	2.47241000	1.99114000
Ti	27.58904776	2.47241000	1.99114000
Ti	16.15343588	2.47241000	1.99114000
Ti	19.96530588	2.47241000	1.99114000
Ti	10.43561588	7.71594000	1.99115000
Ti	25.68310776	7.71594000	1.99115000
Ti	14.24749588	7.71594000	1.99115000
Ti	29.49498776	7.71594000	1.99115000
Ti	18.05936588	7.71594000	1.99115000
O	6.62374588	8.81302000	0.37332000
O	21.87123776	8.81302000	0.37332000
O	8.52968588	3.56949000	0.37332000
O	23.77717776	3.56949000	0.37332000
O	8.52968588	0.60134000	1.26110000
O	23.77717776	0.60134000	1.26110000
O	6.62374588	5.84486000	1.26111000
O	21.87123776	5.84486000	1.26111000
O	6.62374588	2.06812000	1.83340000
O	21.87123776	2.06812000	1.83340000
O	8.52968588	7.31164000	1.83340000
O	23.77717776	7.31164000	1.83340000
O	8.52968588	4.34349000	2.72118000
O	23.77717776	4.34349000	2.72118000
O	6.62374588	9.58701000	2.72118000
O	21.87123776	9.58701000	2.72118000
O	10.43561588	8.81302000	0.37332000
O	25.68310776	8.81302000	0.37332000
O	14.24749588	8.81302000	0.37332000
O	29.49498776	8.81302000	0.37332000
O	18.05936588	8.81302000	0.37332000
O	12.34155588	3.56949000	0.37332000
O	27.58904776	3.56949000	0.37332000
O	16.15343588	3.56949000	0.37332000
O	19.96530588	3.56949000	0.37332000
O	12.34155588	0.60134000	1.26110000
O	27.58904776	0.60134000	1.26110000
O	16.15343588	0.60134000	1.26110000
O	19.96530588	0.60134000	1.26110000
O	10.43561588	5.84486000	1.26111000
O	25.68310776	5.84486000	1.26111000
O	14.24749588	5.84486000	1.26111000
O	29.49498776	5.84486000	1.26111000
O	18.05936588	5.84486000	1.26111000
O	10.43561588	2.06812000	1.83340000
O	25.68310776	2.06812000	1.83340000
O	14.24749588	2.06812000	1.83340000
O	29.49498776	2.06812000	1.83340000
O	18.05936588	2.06812000	1.83340000
O	12.34155588	7.31164000	1.83340000
O	27.58904776	7.31164000	1.83340000
O	16.15343588	7.31164000	1.83340000
O	19.96530588	7.31164000	1.83340000
O	12.34155588	4.34349000	2.72118000
O	27.58904776	4.34349000	2.72118000
O	16.15343588	4.34349000	2.72118000
O	19.96530588	4.34349000	2.72118000
O	10.43561588	9.58701000	2.72118000
O	25.68310776	9.58701000	2.72118000
O	14.24749588	9.58701000	2.72118000
O	29.49498776	9.58701000	2.72118000
O	18.05936588	9.58701000	2.72118000
Ti	2.81187400	10.68408607	1.10336000
Ti	2.81187400	21.17113214	1.10336000
Ti	0.90594400	15.92761607	1.10336000
Ti	0.90594400	26.41466214	1.10336000
Ti	4.71781400	15.92761607	1.10336000
Ti	4.71781400	26.41466214	1.10336000
Ti	0.90594400	12.95945607	1.99114000
Ti	0.90594400	23.44650214	1.99114000
Ti	4.71781400	12.95945607	1.99114000
Ti	4.71781400	23.44650214	1.99114000
Ti	2.81187400	18.20298607	1.99115000
Ti	2.81187400	28.69003214	1.99115000
O	2.81187400	19.30006607	0.37332000
O	2.81187400	29.78711214	0.37332000
O	0.90594400	14.05653607	0.37332000
O	0.90594400	24.54358214	0.37332000
O	4.71781400	14.05653607	0.37332000
O	4.71781400	24.54358214	0.37332000
O	0.90594400	11.08838607	1.26110000
O	0.90594400	21.57543214	1.26110000
O	4.71781400	11.08838607	1.26110000
O	4.71781400	21.57543214	1.26110000
O	2.81187400	16.33190607	1.26111000
O	2.81187400	26.81895214	1.26111000
O	2.81187400	12.55516607	1.83340000
O	2.81187400	23.04221214	1.83340000
O	0.90594400	17.79868607	1.83340000
O	0.90594400	28.28573214	1.83340000
O	4.71781400	17.79868607	1.83340000
O	4.71781400	28.28573214	1.83340000
O	0.90594400	14.83053607	2.72118000
O	0.90594400	25.31758214	2.72118000
O	4.71781400	14.83053607	2.72118000
O	4.71781400	25.31758214	2.72118000
O	2.81187400	20.07405607	2.72118000
O	2.81187400	30.56110214	2.72118000
Ti	6.62374588	10.68408607	1.10336000
Ti	6.62374588	21.17113214	1.10336000
Ti	21.87123776	10.68408607	1.10336000
Ti	21.87123776	21.17113214	1.10336000
Ti	8.52968588	15.92761607	1.10336000
Ti	8.52968588	26.41466214	1.10336000
Ti	23.77717776	15.92761607	1.10336000
Ti	23.77717776	26.41466214	1.10336000
Ti	8.52968588	12.95945607	1.99114000
Ti	8.52968588	23.44650214	1.99114000
Ti	23.77717776	12.95945607	1.99114000
Ti	23.77717776	23.44650214	1.99114000
Ti	6.62374588	18.20298607	1.99115000
Ti	6.62374588	28.69003214	1.99115000
Ti	21.87123776	18.20298607	1.99115000
Ti	21.87123776	28.69003214	1.99115000
Ti	10.43561588	10.68408607	1.10336000
Ti	10.43561588	21.17113214	1.10336000
Ti	25.68310776	10.68408607	1.10336000
Ti	25.68310776	21.17113214	1.10336000
Ti	14.24749588	10.68408607	1.10336000
Ti	14.24749588	21.17113214	1.10336000
Ti	29.49498776	10.68408607	1.10336000
Ti	29.49498776	21.17113214	1.10336000
Ti	18.05936588	10.68408607	1.10336000
Ti	18.05936588	21.17113214	1.10336000
Ti	12.34155588	15.92761607	1.10336000
Ti	12.34155588	26.41466214	1.10336000
Ti	27.58904776	15.92761607	1.10336000
Ti	27.58904776	26.41466214	1.10336000
Ti	16.15343588	15.92761607	1.10336000
Ti	16.15343588	26.41466214	1.10336000
Ti	19.96530588	15.92761607	1.10336000
Ti	19.96530588	26.41466214	1.10336000
Ti	12.34155588	12.95945607	1.99114000
Ti	12.34155588	23.44650214	1.99114000
Ti	27.58904776	12.95945607	1.99114000
Ti	27.58904776	23.44650214	1.99114000
Ti	16.15343588	12.95945607	1.99114000
Ti	16.15343588	23.44650214	1.99114000
Ti	19.96530588	12.95945607	1.99114000
Ti	19.96530588	23.44650214	1.99114000
Ti	10.43561588	18.20298607	1.99115000
Ti	10.43561588	28.69003214	1.99115000
Ti	25.68310776	18.20298607	1.99115000
Ti	25.68310776	28.69003214	1.99115000
Ti	14.24749588	18.20298607	1.99115000
Ti	14.24749588	28.69003214	1.99115000
Ti	29.49498776	18.20298607	1.99115000
Ti	29.49498776	28.69003214	1.99115000
Ti	18.05936588	18.20298607	1.99115000
Ti	18.05936588	28.69003214	1.99115000
O	6.62374588	19.30006607	0.37332000
O	6.62374588	29.78711214	0.37332000
O	21.87123776	19.30006607	0.37332000
O	21.87123776	29.78711214	0.37332000
O	8.52968588	14.05653607	0.37332000
O	8.52968588	24.54358214	0.37332000
O	23.77717776	14.05653607	0.37332000
O	23.77717776	24.54358214	0.37332000
O	8.52968588	11.08838607	1.26110000
O	8.52968588	21.57543214	1.26110000
O	23.77717776	11.08838607	1.26110000
O	23.77717776	21.57543214	1.26110000
O	6.62374588	16.33190607	1.26111000
O	6.62374588	26.81895214	1.26111000
O	21.87123776	16.33190607	1.26111000
O	21.87123776	26.81895214	1.26111000
O	6.62374588	12.55516607	1.83340000
O	6.62374588	23.04221214	1.83340000
O	21.87123776	12.55516607	1.83340000
O	21.87123776	23.04221214	1.83340000
O	8.52968588	17.79868607	1.83340000
O	8.52968588	28.28573214	1.83340000
O	23.77717776	17.79868607	1.83340000
O	23.77717776	28.28573214	1.83340000
O	8.52968588	14.83053607	2.72118000
O	8.52968588	25.31758214	2.72118000
O	23.77717776	14.83053607	2.72118000
O	23.77717776	25.31758214	2.72118000
O	6.62374588	20.07405607	2.72118000
O	6.62374588	30.56110214	2.72118000
O	21.87123776	20.07405607	2.72118000
O	21.87123776	30.56110214	2.72118000
O	10.43561588	19.30006607	0.37332000
O	10.43561588	29.78711214	0.37332000
O	25.68310776	19.30006607	0.37332000
O	25.68310776	29.78711214	0.37332000
O	14.24749588	19.30006607	0.37332000
O	14.24749588	29.78711214	0.37332000
O	29.49498776	19.30006607	0.37332000
O	29.49498776	29.78711214	0.37332000
O	18.05936588	19.30006607	0.37332000
O	18.05936588	29.78711214	0.37332000
O	12.34155588	14.05653607	0.37332000
O	12.34155588	24.54358214	0.37332000
O	27.58904776	14.05653607	0.37332000
O	27.58904776	24.54358214	0.37332000
O	16.15343588	14.05653607	0.37332000
O	16.15343588	24.54358214	0.37332000
O	19.96530588	14.05653607	0.37332000
O	19.96530588	24.54358214	0.37332000
O	12.34155588	11.08838607	1.26110000
O	12.34155588	21.57543214	1.26110000
O	27.58904776	11.08838607	1.26110000
O	27.58904776	21.57543214	1.26110000
O	16.15343588	11.08838607	1.26110000
O	16.15343588	21.57543214	1.26110000
O	19.96530588	11.08838607	1.26110000
O	19.96530588	21.57543214	1.26110000
O	10.43561588	16.33190607	1.26111000
O	10.43561588	26.81895214	1.26111000
O	25.68310776	16.33190607	1.26111000
O	25.68310776	26.81895214	1.26111000
O	14.24749588	16.33190607	1.26111000
O	14.24749588	26.81895214	1.26111000
O	29.49498776	16.33190607	1.26111000
O	29.49498776	26.81895214	1.26111000
O	18.05936588	16.33190607	1.26111000
O	18.05936588	26.81895214	1.26111000
O	10.43561588	12.55516607	1.83340000
O	10.43561588	23.04221214	1.83340000
O	25.68310776	12.55516607	1.83340000
O	25.68310776	23.04221214	1.83340000
O	14.24749588	12.55516607	1.83340000
O	14.24749588	23.04221214	1.83340000
O	29.49498776	12.55516607	1.83340000
O	29.49498776	23.04221214	1.83340000
O	18.05936588	12.55516607	1.83340000
O	18.05936588	23.04221214	1.83340000
O	12.34155588	17.79868607	1.83340000
O	12.34155588	28.28573214	1.83340000
O	27.58904776	17.79868607	1.83340000
O	27.58904776	28.28573214	1.83340000
O	16.15343588	17.79868607	1.83340000
O	16.15343588	28.28573214	1.83340000
O	19.96530588	17.79868607	1.83340000
O	19.96530588	28.28573214	1.83340000
O	12.34155588	14.83053607	2.72118000
O	12.34155588	25.31758214	2.72118000
O	27.58904776	14.83053607	2.72118000
O	27.58904776	25.31758214	2.72118000
O	16.15343588	14.83053607	2.72118000
O	16.15343588	25.31758214	2.72118000
O	19.96530588	14.83053607	2.72118000
O	19.96530588	25.31758214	2.72118000
O	10.43561588	20.07405607	2.72118000
O	10.43561588	30.56110214	2.72118000
O	25.68310776	20.07405607	2.72118000
O	25.68310776	30.56110214	2.72118000
O	14.24749588	20.07405607	2.72118000
O	14.24749588	30.56110214	2.72118000
O	29.49498776	20.07405607	2.72118000
O	29.49498776	30.56110214	2.72118000
O	18.05936588	20.07405607	2.72118000
O	18.05936588	30.56110214	2.72118000
Ti	6.54816508	9.20719059	4.89443791
Ti	6.62566374	6.23746649	5.61143933
Ti	2.86948026	9.29758092	4.74505316
Ti	0.91863155	4.09439064	4.75601966
Ti	4.70742411	3.97318273	4.74092709
Ti	1.01927500	1.13863755	5.39022554
Ti	4.74494912	1.03348436	5.40726562
Ti	2.92915792	6.36140822	5.63079108
O	6.60742983	7.35728682	4.03017115
O	6.60949028	4.47740062	4.73815791
O	6.60584779	0.60326748	5.72437488
O	6.53497332	7.92445957	6.49129827
O	3.03885643	7.29701611	4.06109530
O	1.23823175	2.15105716	3.87812959
O	4.71924763	2.14734740	3.92975344
O	0.90605167	9.83780006	4.59399013
O	4.69872371	9.77459304	4.65638475
O	2.95148987	4.43191123	4.81594176
O	2.81407996	0.58959222	5.60353579
O	0.98414985	5.97088024	5.48277191
O	4.72461337	5.62419417	6.05702251
O	0.90430517	2.82677435	6.24462726
O	4.73434335	2.71118563	6.29313058
O	3.08670245	8.13616244	6.34180533
Ti	21.85432912	9.26147337	4.83271788
Ti	8.55375682	4.06555064	4.78979375
Ti	23.84621776	3.96889285	4.69784011
Ti	8.43232691	1.06040773	5.51702068
Ti	23.74671273	1.07353003	5.54112169
Ti	21.95072492	6.30375425	5.48517244
Ti	10.43488874	9.28342649	4.73186614
Ti	25.72336142	9.18932786	4.81996265
Ti	14.22872462	9.20406697	4.81966910
Ti	29.49788025	9.23553812	4.81820842
Ti	17.99671048	9.26337743	4.80771184
Ti	12.43877435	4.01713171	4.75430530
Ti	27.55701383	3.93748359	4.70170842
Ti	16.23939533	3.88478912	4.88146245
Ti	19.94315103	3.93247760	4.73965912
Ti	12.19985815	1.08934321	5.45483717
Ti	27.54616516	1.09830370	5.45565818
Ti	16.24442766	0.95833526	5.50402780
Ti	20.10528955	1.02540879	5.39300614
Ti	10.51689148	6.29282345	5.48163988
Ti	25.68721542	6.27485684	5.54443349
Ti	14.43435390	6.27561627	5.53248045
Ti	29.46503470	6.28230462	5.49323406
Ti	18.10476894	6.21124521	5.39535344
O	21.84645762	7.42250111	3.96661394
O	8.79665971	2.06361236	3.95569758
O	23.61859310	2.10714254	3.91673162
O	8.51397411	9.60339888	4.95838429
O	23.75597644	9.60613185	5.00201177
O	21.88107903	4.46979755	4.70479627
O	21.87035202	0.48494334	5.94086894
O	8.56573265	5.91725762	5.71272004
O	23.78572844	5.74895369	5.63684617
O	8.71901810	2.89246858	6.26131117
O	23.95784810	2.91875913	6.23772983
O	21.94722752	8.02232746	6.38590437
O	10.56868138	7.35854376	3.88190818
O	25.69445741	7.27586599	3.94386616
O	14.49648318	7.38553562	3.91388517
O	29.20149627	7.27065093	3.88524867
O	18.13659880	7.24546287	3.90607104
O	12.28411447	2.13690972	3.96959361
O	27.60408241	2.09006272	3.88066282
O	16.11557893	1.98499746	3.93653669
O	20.01932490	2.12311313	3.89420162
O	12.40349132	9.71177682	4.80389924
O	27.62537283	9.62075361	4.73328673
O	16.10949898	9.70588706	4.81499131
O	19.92539596	9.69769552	4.83761784
O	10.48385231	4.43553937	4.83348051
O	25.70156613	4.31226743	4.77064171
O	14.32806490	4.42429489	4.79800182
O	29.50034069	4.45982779	4.76774787
O	18.07435729	4.35601531	4.68373706
O	10.39720384	0.56687823	5.83388866
O	25.68662095	0.63867253	5.79042117
O	14.27175328	0.61020112	5.55440387
O	29.47205930	0.60122268	5.74316118
O	18.18184014	0.55941276	5.72452832
O	12.46138488	5.93540404	5.73011785
O	27.53888516	5.78721944	5.84216208
O	16.26798243	5.67331762	5.85824480
O	20.03923891	5.78778320	5.76297932
O	12.26147248	2.85174963	6.36866513
O	27.75078889	2.80419466	6.38714429
O	16.28308635	2.64933769	6.39562827
O	19.93456939	2.83434151	6.29848717
O	10.60536867	8.09113761	6.33116673
O	25.72156828	8.03473391	6.37166517
O	14.36363067	7.99274006	6.39379333
O	29.50908598	8.07576623	6.43908532
O	18.10070106	7.95088282	6.19171331
Ti	6.71923381	19.77591805	4.77479558
Ti	6.58969274	30.21095319	4.73793481
Ti	6.53994664	16.88091641	5.50565831
Ti	6.72574841	27.24081459	5.43888665
Ti	2.90439762	19.81441307	4.84429784
Ti	2.81517212	30.22746812	4.76046736
Ti	0.84857212	14.46033188	4.79535882
Ti	0.95918279	24.98014177	4.74281050
Ti	4.59104116	14.47093180	4.86488359
Ti	4.63623598	24.89890116	4.81340829
Ti	0.90597385	11.55737977	5.49943423
Ti	0.99907249	22.07713479	5.45697491
Ti	4.77759603	11.54464058	5.53513321
Ti	4.74987333	21.98896439	5.53137717
Ti	2.79581921	16.86629161	5.49474778
Ti	2.81590771	27.24433634	5.41726238
O	6.56375947	17.91588743	3.93304783
O	6.74548889	28.39315420	3.94411313
O	6.46590066	14.81386791	4.95370420
O	6.60233571	25.28826295	4.79594048
O	6.61331935	11.04004036	5.63084085
O	6.75146453	21.51010884	5.76802126
O	6.60612813	18.49167490	6.35565092
O	6.67151693	29.04759055	6.27369873
O	2.87461492	17.87093621	3.93191770
O	2.71965391	28.30308450	3.94206471
O	0.76570452	12.64202036	3.97834915
O	0.81503042	23.06820911	3.87626373
O	4.67816465	12.61237606	3.95995380
O	4.83083092	23.04152083	3.86663389
O	0.90926410	20.09921984	4.91232655
O	0.89263910	30.69227615	4.87586863
O	4.75722825	20.13966256	5.03513379
O	4.73695775	30.69620447	4.72307989
O	2.74590755	14.95232720	4.71102843
O	2.81772873	25.38775153	4.79183145
O	2.84860769	11.17235916	5.79498979
O	2.83803286	21.60195051	5.69903031
O	0.83925447	16.37488606	5.69037213
O	0.93269051	26.79964561	5.76453724
O	4.56172730	16.38333280	5.86038190
O	4.79855429	26.81910260	5.56930063
O	0.88953181	13.28526560	6.44812749
O	1.09164230	23.82795926	6.37588117
O	4.65287014	13.26511393	6.46451002
O	4.50252591	23.69414565	6.37984565
O	2.83841780	18.65882000	6.38131160
O	2.92667561	29.05586964	6.36704760
Ti	21.84983274	19.66636660	4.76631594
Ti	21.80020710	30.14456137	4.72399326
Ti	8.52715631	14.43697393	4.83745489
Ti	8.60032714	24.84320605	4.75268241
Ti	23.62974055	14.49410562	4.88408668
Ti	23.71786809	24.96100461	4.77146668
Ti	8.51131961	11.50826220	5.43898563
Ti	8.65295528	21.98418918	5.56414366
Ti	23.83809008	11.58160735	5.58626110
Ti	23.63188980	22.04646372	5.54271352
Ti	21.82921342	16.77407739	5.54869939
Ti	21.81225114	27.24811172	5.41613505
Ti	10.45850536	19.68641734	4.67427867
Ti	10.49453176	30.16942347	4.89518781
Ti	25.64757205	19.69914938	4.90598509
Ti	25.67317344	30.28997771	4.83248473
Ti	14.29908397	19.68235230	4.84352497
Ti	14.32082551	30.23715372	4.74374117
Ti	29.51616091	19.71758443	4.82262168
Ti	29.47719928	30.18616844	4.74513626
Ti	18.15288662	19.62055041	4.66184699
Ti	18.06838791	30.11700410	4.80857973
Ti	12.34086381	14.48338305	4.82705190
Ti	12.38877137	24.87101179	4.65808454
Ti	27.55707451	14.42243675	4.78130621
Ti	27.63156547	24.95580466	4.64981696
Ti	16.05685254	14.44303954	4.82948664
Ti	16.15140187	24.92410926	4.73844904
Ti	19.77200039	14.50266219	4.84780499
Ti	20.00497191	24.94869199	4.79936537
Ti	12.29706545	11.56705428	5.56645154
Ti	12.34491607	21.98202205	5.49182486
Ti	27.56162776	11.48940660	5.44534658
Ti	27.54448033	22.05594192	5.51070759
Ti	16.06044055	11.54838363	5.64829784
Ti	16.12029223	21.96701692	5.48017647
Ti	19.95067635	11.49457524	5.48941827
Ti	19.97689684	22.06507651	5.58172774
Ti	10.30133799	16.82866915	5.48450725
Ti	10.53629849	27.20779449	5.45986630
Ti	25.67256340	16.80622354	5.57875048
Ti	25.61561259	27.29679048	5.44809338
Ti	14.10282468	16.79304797	5.84419122
Ti	14.21445207	27.28056798	5.48768492
Ti	29.37756021	16.78925130	5.50089620
Ti	29.61222817	27.30937818	5.48980540
Ti	18.01028484	16.80118375	5.55117963
Ti	18.04571180	27.16946477	5.47484812
O	21.83221995	17.90158100	4.01406668
O	21.76626160	28.30858787	3.87885441
O	8.58350061	12.61834728	3.90262949
O	8.61214721	23.03305708	3.87865163
O	23.73289022	12.60474359	3.98481291
O	23.60163093	23.07688530	3.93462536
O	8.57926659	20.06346364	4.77212034
O	8.51870271	30.72352663	4.65244871
O	23.77764331	20.11935810	4.85411186
O	23.79805618	30.66147847	4.83573344
O	21.75613949	14.85117486	4.78778221
O	21.86149712	25.34032784	4.95499171
O	21.87447227	11.12809389	5.72685373
O	21.85414055	21.48678704	5.90143149
O	8.36503876	16.26692672	5.78236661
O	8.63705060	26.79284569	5.75804818
O	23.70833734	16.23708939	5.91098069
O	23.74902164	26.87649264	5.59016828
O	8.47246296	13.23363214	6.32239686
O	8.35357629	23.77126167	6.32783608
O	23.55742551	13.25161280	6.47356685
O	23.89540923	23.76026847	6.47365349
O	21.88101379	18.56524370	6.37730655
O	21.70526487	29.05109867	6.33654196
O	10.33880017	17.76813670	3.89239376
O	10.68879957	28.35359281	3.93681008
O	25.69949805	17.79231625	3.92528751
O	25.71408684	28.37578139	3.88079148
O	14.22296667	17.85706623	3.98195946
O	14.19158316	28.45498662	3.99076453
O	29.48550147	17.87457999	3.98201755
O	29.69681163	28.39230533	3.92176671
O	17.96961194	17.82315256	3.92498287
O	17.95180552	28.32015800	3.99068400
O	12.26856706	12.61864333	3.98988722
O	12.27666586	22.99948173	3.92832485
O	27.46840478	12.60233398	3.90408194
O	27.51508793	23.12243947	3.88049327
O	16.08551091	12.59569561	4.01324619
O	16.08194198	23.08259856	3.93251065
O	19.89464209	12.57008848	3.93749694
O	19.95233167	23.09054394	3.99125427
O	12.38191221	20.10189738	4.76601848
O	12.35988906	30.60366748	4.97544134
O	27.56834604	19.99871741	4.89907831
O	27.54912466	30.65751525	4.71113440
O	16.20891412	20.03955663	4.85397648
O	16.22945620	30.41560765	4.94918968
O	19.97661061	20.13308162	4.76510401
O	19.99174500	30.63697920	4.67672393
O	10.35723911	14.89111770	4.96286461
O	10.46627744	25.37566783	4.62220069
O	25.59645254	14.83860814	4.94551350
O	25.69662825	25.41314620	4.92044324
O	14.22615906	15.00828829	4.87591679
O	14.25130357	25.37437826	4.76755201
O	29.46977711	15.00110186	4.63362569
O	29.52328969	25.47435582	4.69031242
O	17.96424462	14.96297772	4.61203789
O	18.08996224	25.35514446	4.82037857
O	10.41199587	11.11080353	5.73230608
O	10.43002712	21.43730482	5.74939942
O	25.72392674	11.07591423	5.67759581
O	25.59235764	21.51072053	5.67795126
O	14.22737881	11.07668369	5.72614925
O	14.23609353	21.57369134	5.73270090
O	29.46866267	10.97042301	5.75427072
O	29.42270324	21.64301049	5.63779327
O	17.89912360	11.02093274	5.79020182
O	18.07989306	21.46936105	5.79730969
O	12.20324370	16.28979062	5.63590993
O	12.37545174	26.70389546	5.85761692
O	27.51215938	16.35131317	5.61658106
O	27.67141998	26.79103934	5.65822827
O	16.14906882	16.39530002	5.78644528
O	16.11133350	26.68881423	5.89840011
O	19.85286805	16.18915428	5.89210822
O	19.91504050	26.69750195	5.81383202
O	12.49383254	13.33661257	6.42041468
O	12.25760342	23.75177362	6.46712746
O	27.71409374	13.26514721	6.34512862
O	27.67378505	23.71967356	6.30994817
O	15.95587596	13.46185383	6.44921790
O	16.13429277	23.73497877	6.35814022
O	19.79756079	13.31646099	6.32850014
O	20.00589196	23.81074096	6.40068939
O	10.42360067	18.65611353	6.33122425
O	10.56726637	28.90827334	6.44459486
O	25.77245638	18.53163180	6.42922811
O	25.70601072	29.02115817	6.24266848
O	14.14763612	18.64367302	6.42099325
O	14.11949507	29.08334656	6.37721457
O	29.28670705	18.44046978	6.36696081
O	29.36914332	29.12865389	6.29504015
O	18.13207602	18.55346485	6.33938071
O	18.16176300	28.90799516	6.37520038
H	14.65104102	13.95765536	8.27532288
H	15.62639697	15.09197613	11.30296616
H	14.69926057	18.58981252	8.86096086
O	14.24931911	16.15198958	7.64357693
O	14.94893682	14.46608984	9.04767181
C	14.83442763	15.70023116	8.75824596
C	15.08311113	16.66016420	9.85130960
C	15.40088235	16.11410237	11.12725560
C	15.00788862	18.06504144	9.75415709
N	13.71785330	19.33146725	15.47931966
N	15.23255146	22.71337180	17.03623936
N	15.97418701	21.03989135	14.77262160
N	13.05285353	20.87318023	17.84271426
C	20.66312834	24.45003736	15.27790843
C	13.73585040	24.29908640	22.57020647
C	8.42272640	17.22549183	16.60544255
C	18.24248609	24.07312888	15.31754981
C	13.44109727	23.82548649	20.24598122
C	10.61990942	18.07398178	17.32663335
C	19.22044810	26.05535765	14.25316590
C	12.06853368	25.58749629	21.36460254
C	9.61651768	16.15064469	18.47089562
C	15.18609449	19.06185122	13.48520052
C	17.09300432	23.10257162	15.45900984
C	13.70492902	22.99914688	19.07190283
C	11.79821304	18.94043009	17.07117884
C	16.05720621	20.15923714	13.72047613
C	16.94085459	22.02502130	14.64794075
C	12.90201413	21.85317399	18.78917848
C	12.00985773	20.02560994	17.89725939
C	17.25192327	20.52788017	12.99348231
C	17.78176092	21.69354204	13.52647011
C	11.71272530	21.56941890	19.53673947
C	11.14074313	20.45280842	18.96616785
C	14.09584804	18.70016663	14.29719183
C	16.33909541	23.41310439	16.58128435
C	14.75482335	23.33174609	18.19851554
C	12.56381124	18.70107424	15.93119740
C	13.21919001	17.59043501	14.04723471
C	16.64864144	24.44097977	17.50381884
C	15.69182449	24.44487271	18.48689340
C	12.23890099	17.60407356	15.01122829
H	13.39632526	16.81272554	13.24828409
H	17.50232520	25.12067460	17.61244505
H	15.67949407	24.98005543	19.47743662
H	11.34843244	17.01276488	15.09722072
H	17.56209312	20.05038964	12.09358523
H	18.58158626	22.28957326	13.09795117
H	11.42535300	22.15235603	20.43033126
H	10.17498565	20.03086809	19.21581298
H	18.96386852	26.97580675	13.73031563
H	11.26724542	26.31779596	21.26274710
H	9.62823563	15.34791035	19.26188498
H	21.67622470	24.15408847	15.64346061
H	14.28887403	24.08047688	23.51406164
H	7.67376710	17.28089716	15.84350782
H	15.27901693	21.04023846	15.54962488
H	13.91748326	20.86630208	17.25553286
C	21.66624771	26.51064128	14.29674811
H	22.08583043	26.35831856	13.29557624
H	22.49578112	26.26716742	14.93355201
H	21.42066757	27.51326138	14.28956769
C	19.71909374	22.59227094	16.63953326
H	19.90826337	21.71508169	16.01356933
H	18.72006040	22.54651008	17.12155090
H	20.57131294	22.77928102	17.32652719
C	16.77347624	25.70323963	13.98706123
H	16.89905028	25.44012605	12.92886485
H	16.64120319	26.80765141	14.13820017
H	15.91445659	25.19567168	14.41598273
C	11.91462696	16.90773870	19.13485067
H	11.69553278	16.96516267	20.21089372
H	12.57123644	17.69763842	18.76798200
H	12.40588394	15.96137305	18.88201658
C	9.35520398	19.28329169	15.55786020
H	8.36499005	19.49365647	15.17426617
H	10.05343602	19.03776745	14.76120768
H	9.74320414	20.19716324	15.99701920
C	7.55308083	15.08374670	17.42381962
H	6.56981936	15.38145152	17.77042794
H	7.89117540	14.21857601	18.02174350
H	7.54478406	14.72195883	16.41102149
C	11.77329434	25.11937755	18.93112973
H	10.76845440	25.55530312	19.06218466
H	11.73160194	24.26942158	18.25966955
H	12.38587900	25.86591172	18.43305574
C	15.32562667	22.65853461	21.52247202
H	16.27422149	23.23594235	21.71788508
H	15.51201934	22.14448947	20.56177200
H	15.14585021	21.87451765	22.25865764
C	12.45841030	26.08568520	23.76301259
H	12.84780931	25.58026676	24.69057391
H	11.38341893	26.32170611	23.88618795
H	12.96401401	27.06306086	23.84597682
C	20.50317860	25.64916715	14.61388147
C	19.55842590	23.71911032	15.73341567
C	18.09557389	25.28079728	14.57275820
C	12.39792987	24.78062058	20.22148637
C	14.15380128	23.58616910	21.40578858
C	12.74795900	25.26975327	22.55875824
C	10.63613596	17.06471812	18.34885531
C	9.43269262	18.20679655	16.59316226
C	8.55500039	16.17395975	17.54396441
H	15.53865431	16.45679859	13.27939467
H	15.00948620	20.02490711	10.81011979
C	15.21601520	18.27159191	12.22138884
C	15.38828368	16.88406036	12.26420311
C	15.03392269	18.88671860	10.94267942

Ti O H C N 0
6-31G*
****

