%chk=f00019096.chk
%mem=24GB
%nproc=12
#p b3lyp/6-31G*

title

0 1
Ti	2.81187400	0.19704000	1.10336000
Ti	0.90594400	5.44057000	1.10336000
Ti	4.71781400	5.44057000	1.10336000
Ti	0.90594400	2.47241000	1.99114000
Ti	4.71781400	2.47241000	1.99114000
Ti	2.81187400	7.71594000	1.99115000
O	2.81187400	8.81302000	0.37332000
O	0.90594400	3.56949000	0.37332000
O	4.71781400	3.56949000	0.37332000
O	0.90594400	0.60134000	1.26110000
O	4.71781400	0.60134000	1.26110000
O	2.81187400	5.84486000	1.26111000
O	2.81187400	2.06812000	1.83340000
O	0.90594400	7.31164000	1.83340000
O	4.71781400	7.31164000	1.83340000
O	0.90594400	4.34349000	2.72118000
O	4.71781400	4.34349000	2.72118000
O	2.81187400	9.58701000	2.72118000
Ti	6.62374588	0.19704000	1.10336000
Ti	21.87123776	0.19704000	1.10336000
Ti	8.52968588	5.44057000	1.10336000
Ti	23.77717776	5.44057000	1.10336000
Ti	8.52968588	2.47241000	1.99114000
Ti	23.77717776	2.47241000	1.99114000
Ti	6.62374588	7.71594000	1.99115000
Ti	21.87123776	7.71594000	1.99115000
Ti	10.43561588	0.19704000	1.10336000
Ti	25.68310776	0.19704000	1.10336000
Ti	14.24749588	0.19704000	1.10336000
Ti	29.49498776	0.19704000	1.10336000
Ti	18.05936588	0.19704000	1.10336000
Ti	12.34155588	5.44057000	1.10336000
Ti	27.58904776	5.44057000	1.10336000
Ti	16.15343588	5.44057000	1.10336000
Ti	19.96530588	5.44057000	1.10336000
Ti	12.34155588	2.47241000	1.99114000
Ti	27.58904776	2.47241000	1.99114000
Ti	16.15343588	2.47241000	1.99114000
Ti	19.96530588	2.47241000	1.99114000
Ti	10.43561588	7.71594000	1.99115000
Ti	25.68310776	7.71594000	1.99115000
Ti	14.24749588	7.71594000	1.99115000
Ti	29.49498776	7.71594000	1.99115000
Ti	18.05936588	7.71594000	1.99115000
O	6.62374588	8.81302000	0.37332000
O	21.87123776	8.81302000	0.37332000
O	8.52968588	3.56949000	0.37332000
O	23.77717776	3.56949000	0.37332000
O	8.52968588	0.60134000	1.26110000
O	23.77717776	0.60134000	1.26110000
O	6.62374588	5.84486000	1.26111000
O	21.87123776	5.84486000	1.26111000
O	6.62374588	2.06812000	1.83340000
O	21.87123776	2.06812000	1.83340000
O	8.52968588	7.31164000	1.83340000
O	23.77717776	7.31164000	1.83340000
O	8.52968588	4.34349000	2.72118000
O	23.77717776	4.34349000	2.72118000
O	6.62374588	9.58701000	2.72118000
O	21.87123776	9.58701000	2.72118000
O	10.43561588	8.81302000	0.37332000
O	25.68310776	8.81302000	0.37332000
O	14.24749588	8.81302000	0.37332000
O	29.49498776	8.81302000	0.37332000
O	18.05936588	8.81302000	0.37332000
O	12.34155588	3.56949000	0.37332000
O	27.58904776	3.56949000	0.37332000
O	16.15343588	3.56949000	0.37332000
O	19.96530588	3.56949000	0.37332000
O	12.34155588	0.60134000	1.26110000
O	27.58904776	0.60134000	1.26110000
O	16.15343588	0.60134000	1.26110000
O	19.96530588	0.60134000	1.26110000
O	10.43561588	5.84486000	1.26111000
O	25.68310776	5.84486000	1.26111000
O	14.24749588	5.84486000	1.26111000
O	29.49498776	5.84486000	1.26111000
O	18.05936588	5.84486000	1.26111000
O	10.43561588	2.06812000	1.83340000
O	25.68310776	2.06812000	1.83340000
O	14.24749588	2.06812000	1.83340000
O	29.49498776	2.06812000	1.83340000
O	18.05936588	2.06812000	1.83340000
O	12.34155588	7.31164000	1.83340000
O	27.58904776	7.31164000	1.83340000
O	16.15343588	7.31164000	1.83340000
O	19.96530588	7.31164000	1.83340000
O	12.34155588	4.34349000	2.72118000
O	27.58904776	4.34349000	2.72118000
O	16.15343588	4.34349000	2.72118000
O	19.96530588	4.34349000	2.72118000
O	10.43561588	9.58701000	2.72118000
O	25.68310776	9.58701000	2.72118000
O	14.24749588	9.58701000	2.72118000
O	29.49498776	9.58701000	2.72118000
O	18.05936588	9.58701000	2.72118000
Ti	2.81187400	10.68408607	1.10336000
Ti	2.81187400	21.17113214	1.10336000
Ti	0.90594400	15.92761607	1.10336000
Ti	0.90594400	26.41466214	1.10336000
Ti	4.71781400	15.92761607	1.10336000
Ti	4.71781400	26.41466214	1.10336000
Ti	0.90594400	12.95945607	1.99114000
Ti	0.90594400	23.44650214	1.99114000
Ti	4.71781400	12.95945607	1.99114000
Ti	4.71781400	23.44650214	1.99114000
Ti	2.81187400	18.20298607	1.99115000
Ti	2.81187400	28.69003214	1.99115000
O	2.81187400	19.30006607	0.37332000
O	2.81187400	29.78711214	0.37332000
O	0.90594400	14.05653607	0.37332000
O	0.90594400	24.54358214	0.37332000
O	4.71781400	14.05653607	0.37332000
O	4.71781400	24.54358214	0.37332000
O	0.90594400	11.08838607	1.26110000
O	0.90594400	21.57543214	1.26110000
O	4.71781400	11.08838607	1.26110000
O	4.71781400	21.57543214	1.26110000
O	2.81187400	16.33190607	1.26111000
O	2.81187400	26.81895214	1.26111000
O	2.81187400	12.55516607	1.83340000
O	2.81187400	23.04221214	1.83340000
O	0.90594400	17.79868607	1.83340000
O	0.90594400	28.28573214	1.83340000
O	4.71781400	17.79868607	1.83340000
O	4.71781400	28.28573214	1.83340000
O	0.90594400	14.83053607	2.72118000
O	0.90594400	25.31758214	2.72118000
O	4.71781400	14.83053607	2.72118000
O	4.71781400	25.31758214	2.72118000
O	2.81187400	20.07405607	2.72118000
O	2.81187400	30.56110214	2.72118000
Ti	6.62374588	10.68408607	1.10336000
Ti	6.62374588	21.17113214	1.10336000
Ti	21.87123776	10.68408607	1.10336000
Ti	21.87123776	21.17113214	1.10336000
Ti	8.52968588	15.92761607	1.10336000
Ti	8.52968588	26.41466214	1.10336000
Ti	23.77717776	15.92761607	1.10336000
Ti	23.77717776	26.41466214	1.10336000
Ti	8.52968588	12.95945607	1.99114000
Ti	8.52968588	23.44650214	1.99114000
Ti	23.77717776	12.95945607	1.99114000
Ti	23.77717776	23.44650214	1.99114000
Ti	6.62374588	18.20298607	1.99115000
Ti	6.62374588	28.69003214	1.99115000
Ti	21.87123776	18.20298607	1.99115000
Ti	21.87123776	28.69003214	1.99115000
Ti	10.43561588	10.68408607	1.10336000
Ti	10.43561588	21.17113214	1.10336000
Ti	25.68310776	10.68408607	1.10336000
Ti	25.68310776	21.17113214	1.10336000
Ti	14.24749588	10.68408607	1.10336000
Ti	14.24749588	21.17113214	1.10336000
Ti	29.49498776	10.68408607	1.10336000
Ti	29.49498776	21.17113214	1.10336000
Ti	18.05936588	10.68408607	1.10336000
Ti	18.05936588	21.17113214	1.10336000
Ti	12.34155588	15.92761607	1.10336000
Ti	12.34155588	26.41466214	1.10336000
Ti	27.58904776	15.92761607	1.10336000
Ti	27.58904776	26.41466214	1.10336000
Ti	16.15343588	15.92761607	1.10336000
Ti	16.15343588	26.41466214	1.10336000
Ti	19.96530588	15.92761607	1.10336000
Ti	19.96530588	26.41466214	1.10336000
Ti	12.34155588	12.95945607	1.99114000
Ti	12.34155588	23.44650214	1.99114000
Ti	27.58904776	12.95945607	1.99114000
Ti	27.58904776	23.44650214	1.99114000
Ti	16.15343588	12.95945607	1.99114000
Ti	16.15343588	23.44650214	1.99114000
Ti	19.96530588	12.95945607	1.99114000
Ti	19.96530588	23.44650214	1.99114000
Ti	10.43561588	18.20298607	1.99115000
Ti	10.43561588	28.69003214	1.99115000
Ti	25.68310776	18.20298607	1.99115000
Ti	25.68310776	28.69003214	1.99115000
Ti	14.24749588	18.20298607	1.99115000
Ti	14.24749588	28.69003214	1.99115000
Ti	29.49498776	18.20298607	1.99115000
Ti	29.49498776	28.69003214	1.99115000
Ti	18.05936588	18.20298607	1.99115000
Ti	18.05936588	28.69003214	1.99115000
O	6.62374588	19.30006607	0.37332000
O	6.62374588	29.78711214	0.37332000
O	21.87123776	19.30006607	0.37332000
O	21.87123776	29.78711214	0.37332000
O	8.52968588	14.05653607	0.37332000
O	8.52968588	24.54358214	0.37332000
O	23.77717776	14.05653607	0.37332000
O	23.77717776	24.54358214	0.37332000
O	8.52968588	11.08838607	1.26110000
O	8.52968588	21.57543214	1.26110000
O	23.77717776	11.08838607	1.26110000
O	23.77717776	21.57543214	1.26110000
O	6.62374588	16.33190607	1.26111000
O	6.62374588	26.81895214	1.26111000
O	21.87123776	16.33190607	1.26111000
O	21.87123776	26.81895214	1.26111000
O	6.62374588	12.55516607	1.83340000
O	6.62374588	23.04221214	1.83340000
O	21.87123776	12.55516607	1.83340000
O	21.87123776	23.04221214	1.83340000
O	8.52968588	17.79868607	1.83340000
O	8.52968588	28.28573214	1.83340000
O	23.77717776	17.79868607	1.83340000
O	23.77717776	28.28573214	1.83340000
O	8.52968588	14.83053607	2.72118000
O	8.52968588	25.31758214	2.72118000
O	23.77717776	14.83053607	2.72118000
O	23.77717776	25.31758214	2.72118000
O	6.62374588	20.07405607	2.72118000
O	6.62374588	30.56110214	2.72118000
O	21.87123776	20.07405607	2.72118000
O	21.87123776	30.56110214	2.72118000
O	10.43561588	19.30006607	0.37332000
O	10.43561588	29.78711214	0.37332000
O	25.68310776	19.30006607	0.37332000
O	25.68310776	29.78711214	0.37332000
O	14.24749588	19.30006607	0.37332000
O	14.24749588	29.78711214	0.37332000
O	29.49498776	19.30006607	0.37332000
O	29.49498776	29.78711214	0.37332000
O	18.05936588	19.30006607	0.37332000
O	18.05936588	29.78711214	0.37332000
O	12.34155588	14.05653607	0.37332000
O	12.34155588	24.54358214	0.37332000
O	27.58904776	14.05653607	0.37332000
O	27.58904776	24.54358214	0.37332000
O	16.15343588	14.05653607	0.37332000
O	16.15343588	24.54358214	0.37332000
O	19.96530588	14.05653607	0.37332000
O	19.96530588	24.54358214	0.37332000
O	12.34155588	11.08838607	1.26110000
O	12.34155588	21.57543214	1.26110000
O	27.58904776	11.08838607	1.26110000
O	27.58904776	21.57543214	1.26110000
O	16.15343588	11.08838607	1.26110000
O	16.15343588	21.57543214	1.26110000
O	19.96530588	11.08838607	1.26110000
O	19.96530588	21.57543214	1.26110000
O	10.43561588	16.33190607	1.26111000
O	10.43561588	26.81895214	1.26111000
O	25.68310776	16.33190607	1.26111000
O	25.68310776	26.81895214	1.26111000
O	14.24749588	16.33190607	1.26111000
O	14.24749588	26.81895214	1.26111000
O	29.49498776	16.33190607	1.26111000
O	29.49498776	26.81895214	1.26111000
O	18.05936588	16.33190607	1.26111000
O	18.05936588	26.81895214	1.26111000
O	10.43561588	12.55516607	1.83340000
O	10.43561588	23.04221214	1.83340000
O	25.68310776	12.55516607	1.83340000
O	25.68310776	23.04221214	1.83340000
O	14.24749588	12.55516607	1.83340000
O	14.24749588	23.04221214	1.83340000
O	29.49498776	12.55516607	1.83340000
O	29.49498776	23.04221214	1.83340000
O	18.05936588	12.55516607	1.83340000
O	18.05936588	23.04221214	1.83340000
O	12.34155588	17.79868607	1.83340000
O	12.34155588	28.28573214	1.83340000
O	27.58904776	17.79868607	1.83340000
O	27.58904776	28.28573214	1.83340000
O	16.15343588	17.79868607	1.83340000
O	16.15343588	28.28573214	1.83340000
O	19.96530588	17.79868607	1.83340000
O	19.96530588	28.28573214	1.83340000
O	12.34155588	14.83053607	2.72118000
O	12.34155588	25.31758214	2.72118000
O	27.58904776	14.83053607	2.72118000
O	27.58904776	25.31758214	2.72118000
O	16.15343588	14.83053607	2.72118000
O	16.15343588	25.31758214	2.72118000
O	19.96530588	14.83053607	2.72118000
O	19.96530588	25.31758214	2.72118000
O	10.43561588	20.07405607	2.72118000
O	10.43561588	30.56110214	2.72118000
O	25.68310776	20.07405607	2.72118000
O	25.68310776	30.56110214	2.72118000
O	14.24749588	20.07405607	2.72118000
O	14.24749588	30.56110214	2.72118000
O	29.49498776	20.07405607	2.72118000
O	29.49498776	30.56110214	2.72118000
O	18.05936588	20.07405607	2.72118000
O	18.05936588	30.56110214	2.72118000
Ti	6.58273665	9.30305689	4.81263232
Ti	6.66671105	6.30268050	5.51667145
Ti	2.82904853	9.24408656	4.68715031
Ti	1.03738396	4.00021503	4.80184958
Ti	4.77877519	4.06063330	4.75601024
Ti	0.92969296	1.12196625	5.46019561
Ti	4.77023009	1.13492390	5.47265830
Ti	2.80051038	6.35182490	5.57165060
O	6.60778337	7.41327187	3.95716389
O	6.64296009	4.50737114	4.80507977
O	6.69394137	0.59341925	5.75821815
O	6.73369194	8.16575427	6.46815596
O	2.97352652	7.40399736	3.86902672
O	0.96962224	2.14825157	3.93710502
O	4.72568248	2.08942695	3.95685818
O	0.81507621	9.55545952	4.76442796
O	4.71517371	9.75906150	4.62922669
O	2.88377210	4.49865767	4.82724936
O	2.88364413	0.58859619	5.70710638
O	0.82587959	6.03419187	5.83748181
O	4.72247299	5.90305340	5.84394277
O	0.97669302	2.80708720	6.40390905
O	5.02849680	2.81907275	6.33116316
O	2.78793508	8.17187860	6.32156450
Ti	21.96897687	9.16349052	4.79334843
Ti	8.47224477	4.04117921	4.75992303
Ti	23.78595816	3.93865683	4.85075979
Ti	8.56175730	1.12950170	5.52456402
Ti	23.70284363	1.00320820	5.51290334
Ti	21.89966879	6.21111699	5.47921350
Ti	10.49142658	9.31655019	4.81840533
Ti	25.63691755	9.11913176	4.69087345
Ti	14.26814500	9.26208798	5.00466867
Ti	29.40641392	9.18334329	4.71658138
Ti	18.09716942	9.06780915	4.74656527
Ti	12.30896419	4.01909015	4.71249682
Ti	27.68455280	3.96843764	4.83692139
Ti	16.19236588	4.01419540	4.72717873
Ti	19.93141545	3.87278454	4.73697136
Ti	12.42449418	1.19081486	5.71295163
Ti	27.52986091	0.91348750	5.42435737
Ti	16.17846224	1.22115546	5.65636279
Ti	19.88431223	0.98332613	5.51775868
Ti	10.37781499	6.42980513	5.57263543
Ti	25.76312067	6.19832369	5.47679570
Ti	14.31505663	6.29304959	5.51059275
Ti	29.46544067	6.32673607	5.63572878
Ti	18.17946111	6.17654175	5.51486856
O	21.97933861	7.20380344	3.95098766
O	8.54530957	2.21535668	3.98962403
O	23.77323290	2.07698605	3.94160048
O	8.55534775	9.72537679	4.79113433
O	23.81662429	9.64677483	4.95278629
O	21.87623964	4.33430395	4.58594063
O	21.84556741	0.45113250	5.93460281
O	8.56962675	5.83864743	5.66585756
O	23.81571773	5.79841598	5.69997108
O	8.78271292	2.86136662	6.35694022
O	23.76858332	2.73389125	6.48945385
O	21.98015465	7.96950677	6.28323693
O	10.38232216	7.46104695	3.92103129
O	25.77856629	7.26302220	3.86992478
O	14.34403551	7.40311624	4.00570032
O	29.46258987	7.24453906	3.92635240
O	18.08014867	7.20735234	3.93575757
O	12.37326679	2.15196236	4.06745367
O	27.45423130	2.02628438	3.86793507
O	16.13425272	2.15881644	3.99179416
O	19.82270321	1.96979186	3.94691249
O	12.33159491	9.70996358	4.94721812
O	27.55687317	9.64128181	4.73816740
O	16.16801596	9.58495446	4.84269205
O	20.07106019	9.46851453	4.69055435
O	10.40507718	4.51911586	4.98701451
O	25.69078701	4.21077684	4.79907317
O	14.24533242	4.36566777	4.88083524
O	29.61903906	4.47322723	4.74145130
O	18.07931000	4.33094549	4.78105750
O	10.43881381	0.58937093	5.73318016
O	25.69303790	0.49732133	5.69355484
O	14.29202511	1.00005365	6.43500934
O	29.53031895	0.69772281	5.56461739
O	18.05752966	0.67823095	5.85682659
O	12.31461247	5.94061015	5.71772838
O	27.62920869	5.54348397	5.96186550
O	16.22157966	5.86421828	5.77494694
O	20.01806396	5.69931304	5.81935580
O	12.21034568	2.89196284	6.39530511
O	27.72501113	2.75036867	6.35792632
O	16.28542564	3.01084831	6.45384175
O	20.29148905	2.68770099	6.21752113
O	10.39809378	8.14729532	6.42552254
O	25.69958617	7.84329579	6.34972828
O	14.34538651	8.06026116	6.46957486
O	29.24309592	8.10853345	6.34525056
O	18.17315298	7.89191413	6.34839678
Ti	6.63892948	19.78276093	4.79433942
Ti	6.72457137	30.09719492	4.78250523
Ti	6.52591259	16.82022451	5.50429798
Ti	6.63066695	27.18383525	5.59083613
Ti	2.74159993	19.83136605	4.71440033
Ti	3.01543735	30.19667872	4.79190187
Ti	0.94691105	14.28915740	4.64346147
Ti	0.89151676	25.08461604	4.71966142
Ti	4.63728897	14.51864554	4.82805097
Ti	4.74987540	24.89433159	4.66828378
Ti	0.89742759	11.41735365	5.45078930
Ti	0.80851171	22.19872343	5.51668524
Ti	4.68996264	11.59323960	5.45157666
Ti	4.75007222	21.98518838	5.46118670
Ti	2.85419660	17.00812736	5.67785560
Ti	2.90913508	27.28062625	5.49273660
O	6.42597213	17.83671055	3.98387168
O	6.70261243	28.15911070	3.93927090
O	6.56358808	14.81405229	4.83469645
O	6.63407036	25.26781176	4.90856989
O	6.61881883	11.10341834	5.88906915
O	6.57522311	21.45052479	5.81441082
O	6.66607250	18.62762157	6.38852926
O	6.64771293	28.91512798	6.38544886
O	2.75329845	17.89955985	4.00339222
O	2.98729027	28.30080625	3.92557477
O	0.84619343	12.51973628	3.88895922
O	0.90390878	23.08473184	3.94084820
O	4.65331349	12.70476665	4.00678545
O	4.69877005	23.06007155	3.89257133
O	0.81349053	20.19541246	4.80808419
O	0.92018986	30.62984970	4.92002068
O	4.69991321	20.15025349	4.73238085
O	4.88572578	30.52322901	4.97620147
O	2.74582197	15.05729375	4.87513979
O	2.85726179	25.41762045	4.80638112
O	2.84763559	10.99222419	5.78233909
O	2.74139206	21.57083097	5.59805678
O	1.00622170	16.73560877	6.11017838
O	0.95450874	26.93267835	5.78351769
O	4.74170498	16.29291792	5.92145852
O	4.72118223	26.74992554	5.83804068
O	0.94197298	13.12872460	6.29285971
O	1.03419956	23.81858948	6.41791182
O	4.61046730	13.28049216	6.61600786
O	4.82604590	23.72663696	6.20988102
O	2.80928754	18.73904474	6.48443069
O	3.05761140	28.99062348	6.27556585
Ti	21.86515124	19.73333256	4.84333263
Ti	21.87474566	30.20041049	4.83330923
Ti	8.51920981	14.45461404	4.80017751
Ti	8.55029773	24.94490774	4.89649312
Ti	23.76158839	14.47623170	4.87330341
Ti	23.74093722	25.11373264	4.83990816
Ti	8.47066621	11.53758900	5.56024593
Ti	8.55004453	21.95238617	5.59535595
Ti	23.65707399	11.57761869	5.58040539
Ti	23.68780799	22.08760638	5.48595726
Ti	22.00194289	16.79807163	5.51076163
Ti	21.77183067	27.30179926	5.44002235
Ti	10.41761010	19.71053411	4.84049323
Ti	10.68678446	30.17706717	4.86983245
Ti	25.61791579	19.70625564	4.75323338
Ti	25.63910901	30.19897840	4.70930753
Ti	14.21580842	19.65962677	4.63594896
Ti	14.25040560	30.18720985	4.58279944
Ti	29.42828953	19.74109714	4.81259671
Ti	29.52135454	30.23084508	4.77748623
Ti	18.06834901	19.67362447	4.75159435
Ti	18.01307532	30.17041284	4.77431138
Ti	12.36900107	14.52824187	4.64753256
Ti	12.35611570	24.94041376	4.68655848
Ti	27.71126356	14.51220782	4.69354251
Ti	27.65405949	24.99856339	4.68595914
Ti	16.15971147	14.43637660	4.75131952
Ti	16.11170004	24.96658632	4.80793404
Ti	20.03242239	14.43019902	4.69567685
Ti	19.94946751	24.95189174	4.68744023
Ti	12.36861708	11.61682201	5.59807228
Ti	12.40475015	21.97048746	5.43734834
Ti	27.63083057	11.56679886	5.52135712
Ti	27.50001183	22.12816850	5.55288540
Ti	16.31197633	11.49569865	5.45692664
Ti	16.18891456	21.97108892	5.51358164
Ti	20.01092979	11.44192049	5.48128505
Ti	19.90937914	21.98947531	5.45100879
Ti	10.40240256	16.71084668	5.47471033
Ti	10.51700318	27.27473341	5.54578609
Ti	25.69420853	16.80522979	5.53559324
Ti	25.71290613	27.29425227	5.39637522
Ti	14.16997250	16.71516661	5.77110345
Ti	14.29862672	27.29928986	5.58001444
Ti	29.72318676	16.83466460	5.52972624
Ti	29.56326390	27.44870511	5.66172957
Ti	18.11306799	16.80528906	5.37433334
Ti	18.08111158	27.26018921	5.49522222
O	21.74614049	17.89541123	3.95295412
O	21.61976759	28.39987202	3.89296365
O	8.53926239	12.57036734	3.96044317
O	8.71871080	23.13124800	3.97731286
O	23.72447786	12.69102128	3.96006712
O	23.53208164	23.10518695	3.89288652
O	8.51962533	20.09880716	4.73648299
O	8.61097187	30.61415870	4.88561092
O	23.72823553	20.22037473	4.85941848
O	23.77544058	30.51804748	4.63661278
O	21.93829671	15.00261577	4.63027320
O	21.87019243	25.38660035	4.75947955
O	21.80294003	10.87499596	5.82251990
O	21.82859619	21.63631171	5.65716941
O	8.48954428	16.11100848	5.78584476
O	8.57253963	26.75309888	5.77172966
O	23.82054670	16.19290650	5.99803852
O	23.77763805	26.88955610	5.79106044
O	8.56791567	13.28064326	6.44394573
O	8.46068266	23.62145541	6.49487750
O	23.40629779	13.37141681	6.39499631
O	23.85273848	23.89489730	6.31959637
O	21.75385963	18.43830579	6.37559170
O	21.82341915	28.94366074	6.34393725
O	10.38261574	17.96065573	3.94950982
O	10.47503552	28.26450937	3.98280817
O	25.59800448	17.84747731	3.96413769
O	25.73356154	28.33265669	3.84569729
O	14.37991245	17.76535298	3.96663050
O	14.45987806	28.30278060	3.98875546
O	29.52386420	17.90599030	3.97899533
O	29.70396914	28.31826583	3.95216928
O	18.13441111	17.75072089	3.82094829
O	18.05947511	28.32679400	3.92632187
O	12.46992827	12.58775625	3.94985013
O	12.49805545	23.10559798	3.94895402
O	27.49015965	12.65370568	3.94836222
O	27.68692071	23.11333190	3.94985776
O	16.08739061	12.56624076	3.90960768
O	16.22247303	23.11965362	3.97214469
O	20.03931504	12.47825912	3.89494215
O	20.15832893	23.07208760	3.93934504
O	12.29817813	20.02896728	4.91709983
O	12.45089657	30.78828432	4.90278207
O	27.48702818	20.21642582	4.71121878
O	27.60063987	30.51907466	4.84930467
O	16.09846838	20.16650106	4.71314901
O	16.13609624	30.78081310	4.98144294
O	19.92790682	20.13833681	4.83741978
O	19.94199922	30.53087674	4.90113887
O	10.40533808	14.80867220	4.91628633
O	10.46029932	25.38145666	4.83844898
O	25.67120761	14.93090725	4.72106029
O	25.74401508	25.42547291	4.67622197
O	14.26878849	14.81483251	4.88482632
O	14.27115593	25.46439215	4.77037966
O	29.63025418	14.85248476	4.90590357
O	29.53215438	25.47604418	4.88600451
O	18.12298824	14.81185824	4.69829167
O	18.01374616	25.42072709	4.76341301
O	10.43321504	11.13531912	5.80318195
O	10.43644817	21.58875892	5.63226148
O	25.74123309	11.08770280	5.74564129
O	25.60437503	21.55889031	5.77961669
O	14.28255561	11.21282407	5.77237835
O	14.33751396	21.50780692	5.74527812
O	29.48075451	10.94468772	5.68120953
O	29.36105280	21.49366357	5.74840024
O	18.12216457	10.86650422	5.68436249
O	18.07630663	21.47265882	5.62080933
O	12.24880586	16.40364036	5.51694840
O	12.30572286	26.77607835	5.87384642
O	27.56785064	16.30592423	5.64286040
O	27.64010492	26.83154490	5.78495821
O	16.26956490	16.34700749	5.69662162
O	16.17978600	26.73169850	5.85163285
O	19.96198579	16.22968126	5.77813864
O	19.95625937	26.61595912	5.76722947
O	12.41253110	13.37918268	6.34724455
O	12.52212228	23.78552920	6.39861432
O	27.26035867	13.24791742	6.43769291
O	27.39959256	23.92021609	6.39848860
O	16.19882390	13.27936015	6.37498399
O	16.26522350	23.66046377	6.36014070
O	20.30723669	13.30705709	6.25661211
O	19.55968788	23.81967763	6.22148534
O	10.40690725	18.45176391	6.35219133
O	10.87008164	28.95471866	6.50410163
O	25.51920196	18.47135879	6.36393740
O	25.66656939	29.04647929	6.31685465
O	14.33310116	18.58024515	6.23204738
O	14.08970792	28.95732853	6.38130372
O	29.30806787	18.58561834	6.34997902
O	29.34907381	29.11352657	6.43757457
O	18.04628392	18.51044422	6.20005317
O	17.98358494	29.02769508	6.29526401
H	14.80702817	14.10311904	7.66770304
H	13.84916173	14.64995988	11.08316931
H	14.64820826	18.34827408	9.01816070
O	13.95114100	16.08392240	7.57784248
O	14.85409313	14.40122329	8.62251386
C	14.32500278	15.60266899	8.71677669
C	14.35360865	16.43410152	9.95127652
C	14.09153827	15.71524666	11.17643023
C	14.54353404	17.79233655	9.96421026
N	12.95480552	19.54457940	15.52034066
N	15.42179904	22.30853471	16.95042393
N	15.66028029	20.16995317	14.92687010
N	12.62617382	21.73374462	17.38130376
C	21.33100332	20.85338484	16.37415443
C	14.41597580	25.23792001	21.77003547
C	7.21275628	19.90622792	16.25579590
C	19.03545573	21.63583270	15.95773114
C	13.86622314	24.68829852	19.44333141
C	9.47364376	19.81349198	17.10918800
C	20.95419426	22.83028845	15.01082106
C	13.50184486	26.91302733	20.30635686
C	7.68963482	18.66520421	18.25554703
C	14.30156324	18.58152847	13.60233273
C	17.56148769	21.32221203	16.03038534
C	13.93480266	23.64045507	18.39683588
C	10.94974241	20.08392085	16.87099677
C	15.52107755	19.17229258	13.97423890
C	16.98095059	20.43902615	15.10918007
C	12.77812074	22.83285859	18.16720682
C	11.33838485	21.28211017	17.42712912
C	16.84550979	18.89316982	13.39986963
C	17.71189127	19.54875894	14.18453550
C	11.45368473	23.07964460	18.78379825
C	10.59886360	22.16035636	18.29010587
C	13.19673771	18.66677754	14.46302647
C	16.78869748	22.14342163	16.87597841
C	15.21593683	23.40260187	17.81466429
C	11.67502750	19.25316858	15.98031514
C	12.10963535	17.75049573	14.40104162
C	17.41897788	23.18487286	17.69902611
C	16.43878109	23.99531721	18.15646887
C	11.16228223	18.05525380	15.32470089
H	12.01732049	16.94145289	13.67132665
H	18.50575713	23.30760342	17.64282433
H	16.68539986	24.78637433	18.84993309
H	10.21957304	17.48534924	15.53987408
H	16.87903671	18.13031911	12.62929736
H	18.79068096	19.50845151	14.13243859
H	11.26127610	24.00534852	19.36125654
H	9.57638932	22.05122143	18.59044303
H	21.25760050	23.64090958	14.27955999
H	13.24304701	28.02112624	20.14439391
H	7.32452098	18.18708710	19.21455549
H	22.08976078	20.15796133	16.79614445
H	14.83476314	24.93801607	22.81152580
H	6.50513053	20.26580988	15.47128576
H	14.72897976	20.55489100	15.26690935
H	13.34485148	21.19957250	16.85582430
C	23.31090539	22.13948060	15.34657101
H	23.79506460	21.30500785	14.81300632
H	23.77738050	22.21718685	16.34443537
H	23.40034370	23.08248829	14.76473794
C	19.53686075	19.56090346	17.46261905
H	18.44034503	19.51901910	17.46542520
H	19.86278241	19.60403198	18.50410552
H	19.89172747	18.55548220	17.09318027
C	18.56343962	23.76000545	14.77841987
H	18.89353832	24.30622172	13.84506696
H	18.55572281	24.50840166	15.58843068
H	17.56353963	23.31709042	14.79041258
C	10.02905054	18.66081702	19.26382185
H	10.63904562	17.79311076	18.93044156
H	9.52823345	18.39317067	20.17617719
H	10.70614583	19.48854542	19.56030404
C	8.92041168	21.24207958	15.04489527
H	9.83242518	21.84043018	15.33164784
H	8.06737111	21.88651514	14.77500106
H	9.31246805	20.58174692	14.23947368
C	5.39342554	18.41128348	17.15258064
H	5.31169913	17.68233006	16.34817427
H	4.55435238	19.08266337	16.90285955
H	5.07675808	17.95778912	18.02447369
C	12.84155248	26.36491992	17.88590632
H	12.15175663	25.56107702	17.50496603
H	13.69193161	26.53472243	17.17132824
H	12.32394215	27.29546009	18.07741282
C	14.80681094	22.94448681	21.14283164
H	14.03900886	22.48812567	21.79660747
H	15.80353179	23.00095750	21.57302433
H	14.80813522	22.34925942	20.24440235
C	14.40270106	27.63053546	22.56930464
H	14.21785667	27.36648627	23.63639769
H	13.83476873	28.58354926	22.41947208
H	15.50722069	27.83551108	22.51610844
C	21.81445233	21.90830312	15.56879726
C	19.96480675	20.73125091	16.61289448
C	19.58396491	22.70318299	15.23925466
C	13.37999555	25.99996794	19.20640709
C	14.34668428	24.33161210	20.74174438
C	14.06181199	26.57827391	21.52508081
C	9.04484578	19.10229234	18.24420708
C	8.52973598	20.34588699	16.17688395
C	6.77396472	18.97101295	17.27201966
H	14.07699781	15.69382909	13.31642075
H	14.71493637	19.57111020	11.28184455
C	14.26644937	17.80684441	12.39891479
C	14.12123977	16.35483882	12.41678589
C	14.53354345	18.45949673	11.18448198

Ti O H C N 0
6-31G*
****

