%chk=f00016892.chk
%mem=24GB
%nproc=12
#p b3lyp/6-31G*

title

0 1
Ti	2.81187400	0.19704000	1.10336000
Ti	0.90594400	5.44057000	1.10336000
Ti	4.71781400	5.44057000	1.10336000
Ti	0.90594400	2.47241000	1.99114000
Ti	4.71781400	2.47241000	1.99114000
Ti	2.81187400	7.71594000	1.99115000
O	2.81187400	8.81302000	0.37332000
O	0.90594400	3.56949000	0.37332000
O	4.71781400	3.56949000	0.37332000
O	0.90594400	0.60134000	1.26110000
O	4.71781400	0.60134000	1.26110000
O	2.81187400	5.84486000	1.26111000
O	2.81187400	2.06812000	1.83340000
O	0.90594400	7.31164000	1.83340000
O	4.71781400	7.31164000	1.83340000
O	0.90594400	4.34349000	2.72118000
O	4.71781400	4.34349000	2.72118000
O	2.81187400	9.58701000	2.72118000
Ti	6.62374588	0.19704000	1.10336000
Ti	21.87123776	0.19704000	1.10336000
Ti	8.52968588	5.44057000	1.10336000
Ti	23.77717776	5.44057000	1.10336000
Ti	8.52968588	2.47241000	1.99114000
Ti	23.77717776	2.47241000	1.99114000
Ti	6.62374588	7.71594000	1.99115000
Ti	21.87123776	7.71594000	1.99115000
Ti	10.43561588	0.19704000	1.10336000
Ti	25.68310776	0.19704000	1.10336000
Ti	14.24749588	0.19704000	1.10336000
Ti	29.49498776	0.19704000	1.10336000
Ti	18.05936588	0.19704000	1.10336000
Ti	12.34155588	5.44057000	1.10336000
Ti	27.58904776	5.44057000	1.10336000
Ti	16.15343588	5.44057000	1.10336000
Ti	19.96530588	5.44057000	1.10336000
Ti	12.34155588	2.47241000	1.99114000
Ti	27.58904776	2.47241000	1.99114000
Ti	16.15343588	2.47241000	1.99114000
Ti	19.96530588	2.47241000	1.99114000
Ti	10.43561588	7.71594000	1.99115000
Ti	25.68310776	7.71594000	1.99115000
Ti	14.24749588	7.71594000	1.99115000
Ti	29.49498776	7.71594000	1.99115000
Ti	18.05936588	7.71594000	1.99115000
O	6.62374588	8.81302000	0.37332000
O	21.87123776	8.81302000	0.37332000
O	8.52968588	3.56949000	0.37332000
O	23.77717776	3.56949000	0.37332000
O	8.52968588	0.60134000	1.26110000
O	23.77717776	0.60134000	1.26110000
O	6.62374588	5.84486000	1.26111000
O	21.87123776	5.84486000	1.26111000
O	6.62374588	2.06812000	1.83340000
O	21.87123776	2.06812000	1.83340000
O	8.52968588	7.31164000	1.83340000
O	23.77717776	7.31164000	1.83340000
O	8.52968588	4.34349000	2.72118000
O	23.77717776	4.34349000	2.72118000
O	6.62374588	9.58701000	2.72118000
O	21.87123776	9.58701000	2.72118000
O	10.43561588	8.81302000	0.37332000
O	25.68310776	8.81302000	0.37332000
O	14.24749588	8.81302000	0.37332000
O	29.49498776	8.81302000	0.37332000
O	18.05936588	8.81302000	0.37332000
O	12.34155588	3.56949000	0.37332000
O	27.58904776	3.56949000	0.37332000
O	16.15343588	3.56949000	0.37332000
O	19.96530588	3.56949000	0.37332000
O	12.34155588	0.60134000	1.26110000
O	27.58904776	0.60134000	1.26110000
O	16.15343588	0.60134000	1.26110000
O	19.96530588	0.60134000	1.26110000
O	10.43561588	5.84486000	1.26111000
O	25.68310776	5.84486000	1.26111000
O	14.24749588	5.84486000	1.26111000
O	29.49498776	5.84486000	1.26111000
O	18.05936588	5.84486000	1.26111000
O	10.43561588	2.06812000	1.83340000
O	25.68310776	2.06812000	1.83340000
O	14.24749588	2.06812000	1.83340000
O	29.49498776	2.06812000	1.83340000
O	18.05936588	2.06812000	1.83340000
O	12.34155588	7.31164000	1.83340000
O	27.58904776	7.31164000	1.83340000
O	16.15343588	7.31164000	1.83340000
O	19.96530588	7.31164000	1.83340000
O	12.34155588	4.34349000	2.72118000
O	27.58904776	4.34349000	2.72118000
O	16.15343588	4.34349000	2.72118000
O	19.96530588	4.34349000	2.72118000
O	10.43561588	9.58701000	2.72118000
O	25.68310776	9.58701000	2.72118000
O	14.24749588	9.58701000	2.72118000
O	29.49498776	9.58701000	2.72118000
O	18.05936588	9.58701000	2.72118000
Ti	2.81187400	10.68408607	1.10336000
Ti	2.81187400	21.17113214	1.10336000
Ti	0.90594400	15.92761607	1.10336000
Ti	0.90594400	26.41466214	1.10336000
Ti	4.71781400	15.92761607	1.10336000
Ti	4.71781400	26.41466214	1.10336000
Ti	0.90594400	12.95945607	1.99114000
Ti	0.90594400	23.44650214	1.99114000
Ti	4.71781400	12.95945607	1.99114000
Ti	4.71781400	23.44650214	1.99114000
Ti	2.81187400	18.20298607	1.99115000
Ti	2.81187400	28.69003214	1.99115000
O	2.81187400	19.30006607	0.37332000
O	2.81187400	29.78711214	0.37332000
O	0.90594400	14.05653607	0.37332000
O	0.90594400	24.54358214	0.37332000
O	4.71781400	14.05653607	0.37332000
O	4.71781400	24.54358214	0.37332000
O	0.90594400	11.08838607	1.26110000
O	0.90594400	21.57543214	1.26110000
O	4.71781400	11.08838607	1.26110000
O	4.71781400	21.57543214	1.26110000
O	2.81187400	16.33190607	1.26111000
O	2.81187400	26.81895214	1.26111000
O	2.81187400	12.55516607	1.83340000
O	2.81187400	23.04221214	1.83340000
O	0.90594400	17.79868607	1.83340000
O	0.90594400	28.28573214	1.83340000
O	4.71781400	17.79868607	1.83340000
O	4.71781400	28.28573214	1.83340000
O	0.90594400	14.83053607	2.72118000
O	0.90594400	25.31758214	2.72118000
O	4.71781400	14.83053607	2.72118000
O	4.71781400	25.31758214	2.72118000
O	2.81187400	20.07405607	2.72118000
O	2.81187400	30.56110214	2.72118000
Ti	6.62374588	10.68408607	1.10336000
Ti	6.62374588	21.17113214	1.10336000
Ti	21.87123776	10.68408607	1.10336000
Ti	21.87123776	21.17113214	1.10336000
Ti	8.52968588	15.92761607	1.10336000
Ti	8.52968588	26.41466214	1.10336000
Ti	23.77717776	15.92761607	1.10336000
Ti	23.77717776	26.41466214	1.10336000
Ti	8.52968588	12.95945607	1.99114000
Ti	8.52968588	23.44650214	1.99114000
Ti	23.77717776	12.95945607	1.99114000
Ti	23.77717776	23.44650214	1.99114000
Ti	6.62374588	18.20298607	1.99115000
Ti	6.62374588	28.69003214	1.99115000
Ti	21.87123776	18.20298607	1.99115000
Ti	21.87123776	28.69003214	1.99115000
Ti	10.43561588	10.68408607	1.10336000
Ti	10.43561588	21.17113214	1.10336000
Ti	25.68310776	10.68408607	1.10336000
Ti	25.68310776	21.17113214	1.10336000
Ti	14.24749588	10.68408607	1.10336000
Ti	14.24749588	21.17113214	1.10336000
Ti	29.49498776	10.68408607	1.10336000
Ti	29.49498776	21.17113214	1.10336000
Ti	18.05936588	10.68408607	1.10336000
Ti	18.05936588	21.17113214	1.10336000
Ti	12.34155588	15.92761607	1.10336000
Ti	12.34155588	26.41466214	1.10336000
Ti	27.58904776	15.92761607	1.10336000
Ti	27.58904776	26.41466214	1.10336000
Ti	16.15343588	15.92761607	1.10336000
Ti	16.15343588	26.41466214	1.10336000
Ti	19.96530588	15.92761607	1.10336000
Ti	19.96530588	26.41466214	1.10336000
Ti	12.34155588	12.95945607	1.99114000
Ti	12.34155588	23.44650214	1.99114000
Ti	27.58904776	12.95945607	1.99114000
Ti	27.58904776	23.44650214	1.99114000
Ti	16.15343588	12.95945607	1.99114000
Ti	16.15343588	23.44650214	1.99114000
Ti	19.96530588	12.95945607	1.99114000
Ti	19.96530588	23.44650214	1.99114000
Ti	10.43561588	18.20298607	1.99115000
Ti	10.43561588	28.69003214	1.99115000
Ti	25.68310776	18.20298607	1.99115000
Ti	25.68310776	28.69003214	1.99115000
Ti	14.24749588	18.20298607	1.99115000
Ti	14.24749588	28.69003214	1.99115000
Ti	29.49498776	18.20298607	1.99115000
Ti	29.49498776	28.69003214	1.99115000
Ti	18.05936588	18.20298607	1.99115000
Ti	18.05936588	28.69003214	1.99115000
O	6.62374588	19.30006607	0.37332000
O	6.62374588	29.78711214	0.37332000
O	21.87123776	19.30006607	0.37332000
O	21.87123776	29.78711214	0.37332000
O	8.52968588	14.05653607	0.37332000
O	8.52968588	24.54358214	0.37332000
O	23.77717776	14.05653607	0.37332000
O	23.77717776	24.54358214	0.37332000
O	8.52968588	11.08838607	1.26110000
O	8.52968588	21.57543214	1.26110000
O	23.77717776	11.08838607	1.26110000
O	23.77717776	21.57543214	1.26110000
O	6.62374588	16.33190607	1.26111000
O	6.62374588	26.81895214	1.26111000
O	21.87123776	16.33190607	1.26111000
O	21.87123776	26.81895214	1.26111000
O	6.62374588	12.55516607	1.83340000
O	6.62374588	23.04221214	1.83340000
O	21.87123776	12.55516607	1.83340000
O	21.87123776	23.04221214	1.83340000
O	8.52968588	17.79868607	1.83340000
O	8.52968588	28.28573214	1.83340000
O	23.77717776	17.79868607	1.83340000
O	23.77717776	28.28573214	1.83340000
O	8.52968588	14.83053607	2.72118000
O	8.52968588	25.31758214	2.72118000
O	23.77717776	14.83053607	2.72118000
O	23.77717776	25.31758214	2.72118000
O	6.62374588	20.07405607	2.72118000
O	6.62374588	30.56110214	2.72118000
O	21.87123776	20.07405607	2.72118000
O	21.87123776	30.56110214	2.72118000
O	10.43561588	19.30006607	0.37332000
O	10.43561588	29.78711214	0.37332000
O	25.68310776	19.30006607	0.37332000
O	25.68310776	29.78711214	0.37332000
O	14.24749588	19.30006607	0.37332000
O	14.24749588	29.78711214	0.37332000
O	29.49498776	19.30006607	0.37332000
O	29.49498776	29.78711214	0.37332000
O	18.05936588	19.30006607	0.37332000
O	18.05936588	29.78711214	0.37332000
O	12.34155588	14.05653607	0.37332000
O	12.34155588	24.54358214	0.37332000
O	27.58904776	14.05653607	0.37332000
O	27.58904776	24.54358214	0.37332000
O	16.15343588	14.05653607	0.37332000
O	16.15343588	24.54358214	0.37332000
O	19.96530588	14.05653607	0.37332000
O	19.96530588	24.54358214	0.37332000
O	12.34155588	11.08838607	1.26110000
O	12.34155588	21.57543214	1.26110000
O	27.58904776	11.08838607	1.26110000
O	27.58904776	21.57543214	1.26110000
O	16.15343588	11.08838607	1.26110000
O	16.15343588	21.57543214	1.26110000
O	19.96530588	11.08838607	1.26110000
O	19.96530588	21.57543214	1.26110000
O	10.43561588	16.33190607	1.26111000
O	10.43561588	26.81895214	1.26111000
O	25.68310776	16.33190607	1.26111000
O	25.68310776	26.81895214	1.26111000
O	14.24749588	16.33190607	1.26111000
O	14.24749588	26.81895214	1.26111000
O	29.49498776	16.33190607	1.26111000
O	29.49498776	26.81895214	1.26111000
O	18.05936588	16.33190607	1.26111000
O	18.05936588	26.81895214	1.26111000
O	10.43561588	12.55516607	1.83340000
O	10.43561588	23.04221214	1.83340000
O	25.68310776	12.55516607	1.83340000
O	25.68310776	23.04221214	1.83340000
O	14.24749588	12.55516607	1.83340000
O	14.24749588	23.04221214	1.83340000
O	29.49498776	12.55516607	1.83340000
O	29.49498776	23.04221214	1.83340000
O	18.05936588	12.55516607	1.83340000
O	18.05936588	23.04221214	1.83340000
O	12.34155588	17.79868607	1.83340000
O	12.34155588	28.28573214	1.83340000
O	27.58904776	17.79868607	1.83340000
O	27.58904776	28.28573214	1.83340000
O	16.15343588	17.79868607	1.83340000
O	16.15343588	28.28573214	1.83340000
O	19.96530588	17.79868607	1.83340000
O	19.96530588	28.28573214	1.83340000
O	12.34155588	14.83053607	2.72118000
O	12.34155588	25.31758214	2.72118000
O	27.58904776	14.83053607	2.72118000
O	27.58904776	25.31758214	2.72118000
O	16.15343588	14.83053607	2.72118000
O	16.15343588	25.31758214	2.72118000
O	19.96530588	14.83053607	2.72118000
O	19.96530588	25.31758214	2.72118000
O	10.43561588	20.07405607	2.72118000
O	10.43561588	30.56110214	2.72118000
O	25.68310776	20.07405607	2.72118000
O	25.68310776	30.56110214	2.72118000
O	14.24749588	20.07405607	2.72118000
O	14.24749588	30.56110214	2.72118000
O	29.49498776	20.07405607	2.72118000
O	29.49498776	30.56110214	2.72118000
O	18.05936588	20.07405607	2.72118000
O	18.05936588	30.56110214	2.72118000
Ti	6.58623097	9.14383813	4.70574058
Ti	6.56981067	6.27250131	5.57763996
Ti	2.86467410	9.26828144	4.80237313
Ti	0.87076975	3.90156953	4.65571617
Ti	4.67966079	3.96941028	4.70330142
Ti	0.72247342	1.10263330	5.58040952
Ti	4.74245163	1.09042602	5.55241627
Ti	2.72273232	6.35378776	5.57611724
O	6.63770051	7.27944515	3.97224582
O	6.63276544	4.41632536	4.82280568
O	6.61807602	0.61427847	5.62469805
O	6.76364627	8.00791014	6.30185378
O	2.83730166	7.34037028	3.96584280
O	0.67701054	2.10281397	4.00036614
O	4.65771193	2.07959613	3.96526190
O	0.90914362	9.66220226	4.73432163
O	4.73696399	9.57221343	4.90783823
O	2.73208178	4.35827659	4.65630750
O	2.77367790	0.60483897	5.92829159
O	0.86470970	5.60846336	5.94862025
O	4.64196379	5.78087836	5.71137703
O	0.82931276	2.83033524	6.46861353
O	4.56770066	2.85735305	6.39323671
O	2.81017104	8.07462469	6.38731947
Ti	21.88336441	9.19539390	4.83750775
Ti	8.59840000	3.94665736	4.83245472
Ti	23.72256389	3.96681039	4.82660132
Ti	8.54177764	1.07347177	5.63465974
Ti	23.71033731	0.99578417	5.53053378
Ti	21.79349791	6.18200982	5.42782022
Ti	10.33520311	9.25665756	4.73523417
Ti	25.60548029	9.22513678	4.76560611
Ti	14.15786617	9.21682997	4.82279182
Ti	29.42825234	9.27485977	4.71185153
Ti	17.94785775	9.18703363	4.80802392
Ti	12.26966444	3.88011596	4.86174313
Ti	27.59140234	4.02544626	4.72158190
Ti	16.08730167	3.99554354	4.80431304
Ti	19.94047013	3.91796536	4.76339356
Ti	12.38977738	0.91018170	5.48374699
Ti	27.58930090	0.99679494	5.44770790
Ti	16.18715109	1.10793039	5.54144855
Ti	19.92701203	1.06222635	5.45496558
Ti	10.41212652	6.33854281	5.42947577
Ti	25.74380716	6.34166175	5.50642881
Ti	14.24296830	6.26714650	5.46143525
Ti	29.58112683	6.33225148	5.50781907
Ti	17.99357170	6.30454813	5.48756707
O	21.97367040	7.38578155	3.94744647
O	8.71358085	2.04869732	4.05467695
O	23.81146040	2.06801415	4.01536107
O	8.37422521	9.78609598	4.87358667
O	23.75793737	9.63745362	5.06368896
O	21.86889493	4.30543529	4.65543860
O	21.75747944	0.48268291	5.77736936
O	8.56043858	5.77939451	5.72608065
O	23.74779385	5.82802966	5.77513985
O	8.54547933	2.80143617	6.44284798
O	23.59910508	2.78543250	6.39592823
O	21.75959490	8.00566835	6.36252016
O	10.45998607	7.40324986	3.88507076
O	25.66679377	7.39272188	3.91784575
O	14.23257954	7.38933585	3.92183344
O	29.57291574	7.43066101	3.94163941
O	18.08259582	7.40174036	3.94702185
O	12.30101419	1.98832211	3.95086537
O	27.58646145	2.06131378	3.92552072
O	16.16252713	2.13367938	3.87404323
O	19.80087946	2.13284015	3.87339856
O	12.26560045	9.67771048	4.79496339
O	27.55678912	9.84945181	4.61840857
O	16.11223481	9.77106213	4.93832593
O	19.92847732	9.64766719	4.85808110
O	10.43963079	4.36439819	4.69052434
O	25.69149887	4.50748864	4.76217364
O	14.20445185	4.40340181	4.75772261
O	29.47647953	4.51361274	4.68536453
O	18.07976447	4.49859566	4.84151242
O	10.47695984	0.46953614	5.84618875
O	25.67242982	0.60137377	5.71268687
O	14.27345404	0.50644514	5.67465336
O	29.38201579	0.58506943	5.84343265
O	18.01798054	0.51551659	5.69552462
O	12.24525602	5.74796675	5.65433915
O	27.68915131	5.80455971	5.68103046
O	16.04097452	5.65203604	5.76624895
O	19.88874189	5.70621434	5.78566276
O	12.40079579	2.64431145	6.36442726
O	27.47698919	2.78584217	6.27210388
O	16.17490701	2.84714308	6.37633722
O	19.89786261	2.79034943	6.42942622
O	10.54887811	8.08199680	6.33872655
O	25.60452830	8.03208242	6.37861623
O	13.86357258	7.92380455	6.34853224
O	29.46275766	8.10441104	6.32659083
O	18.05438802	8.08417903	6.38015891
Ti	6.78856209	19.77965114	4.68647302
Ti	6.60613436	30.15763895	4.92752916
Ti	6.61005352	16.91556272	5.59169972
Ti	6.60990757	27.20139950	5.51564051
Ti	2.91463346	19.77749249	4.72961573
Ti	2.74805610	30.25636075	4.74705587
Ti	0.91427366	14.30829264	4.66679727
Ti	0.80746034	25.00644321	4.78768828
Ti	4.65029971	14.46730717	4.83674522
Ti	4.63739344	24.97070178	4.78772684
Ti	0.99798165	11.53062820	5.57938853
Ti	0.96683639	21.98886091	5.48598118
Ti	4.79404670	11.55253715	5.54846890
Ti	4.78055714	22.12915602	5.55756565
Ti	2.80129654	16.91160725	5.56801606
Ti	2.79351166	27.30464167	5.48872217
O	6.44432914	17.86103018	3.96960681
O	6.24662247	28.34879328	3.96909861
O	6.51419219	14.95590907	4.93089143
O	6.59890480	25.39366323	4.72205475
O	6.64917979	11.10491584	5.83779111
O	6.67775347	21.55930731	5.79055571
O	6.73635886	18.64867958	6.31489482
O	6.56005439	29.01940446	6.42178705
O	2.69311012	17.84801718	3.96000733
O	2.81990128	28.31849217	3.92849019
O	0.77126209	12.50630832	3.96840275
O	1.09482263	23.13801317	3.94319436
O	4.66037641	12.62284784	4.03040006
O	4.66939228	23.11736421	3.97277521
O	1.00880923	20.23630771	4.80597031
O	0.85224854	30.74334436	4.73998239
O	4.83083919	20.37745578	4.66072172
O	4.64728501	30.68541410	4.76706147
O	2.67518547	15.04880010	4.81162960
O	2.76245241	25.49184834	4.62206566
O	2.86695538	11.05544020	5.81687294
O	2.86089705	21.63310562	5.65092444
O	0.90891999	16.71049821	6.15780781
O	0.88465594	26.77012410	5.73183190
O	4.68323972	16.27929260	5.79520282
O	4.67314282	26.71247015	5.69279800
O	0.99762936	13.20225344	6.45096893
O	0.77261088	23.81040445	6.37187307
O	4.72737296	13.34000141	6.37493942
O	4.67538128	23.80963985	6.41698835
O	2.93859296	18.68623013	6.25525349
O	2.73685436	29.05590850	6.21872914
Ti	21.93805424	19.80064664	4.69763976
Ti	21.74084876	30.14849556	4.89531600
Ti	8.47507534	14.56086901	4.72328795
Ti	8.52492304	25.06557193	4.67841504
Ti	23.85811651	14.54219293	4.70475338
Ti	23.81433600	24.94060023	4.76355650
Ti	8.52516429	11.65442303	5.62467888
Ti	8.58573894	22.12619019	5.58222637
Ti	23.67391409	11.58539818	5.55922074
Ti	23.82991414	22.01426310	5.44576440
Ti	21.93878993	16.77860274	5.52429394
Ti	21.90272856	27.19563662	5.48152056
Ti	10.43087052	19.77234637	4.81702982
Ti	10.45633121	30.17797548	4.86219287
Ti	25.70156177	19.47730981	4.69052327
Ti	25.56288804	30.17846981	4.75429164
Ti	14.31734987	19.69050286	4.71386457
Ti	14.29140536	30.13098134	4.82992067
Ti	29.48805036	19.75283831	4.71344084
Ti	29.45333746	30.17676566	4.77799790
Ti	18.09462829	19.62725111	4.66687849
Ti	18.04724686	30.20920620	4.72508086
Ti	12.33566631	14.48878356	4.71286529
Ti	12.41562830	24.92782452	4.84077555
Ti	27.78951760	14.48876674	4.79978654
Ti	27.52741483	24.84033499	4.64394091
Ti	16.17615933	14.55784926	4.68668292
Ti	16.18881994	24.94333664	4.74974769
Ti	19.99750970	14.46281845	4.71607673
Ti	19.96350744	24.94526498	4.72577595
Ti	12.23101852	11.57612875	5.48652915
Ti	12.38202445	21.98142362	5.42069576
Ti	27.50978153	11.57681073	5.44519052
Ti	27.58106617	21.95208745	5.47829641
Ti	16.04735358	11.67874705	5.63985549
Ti	16.18832847	21.93635194	5.59928127
Ti	19.87085288	11.52742312	5.61083655
Ti	19.89647581	22.03811819	5.51730892
Ti	10.46035658	16.87263143	5.51150742
Ti	10.47097982	27.26892154	5.53664815
Ti	25.81810730	16.75500124	5.62045115
Ti	25.70193512	27.25986085	5.47306776
Ti	14.36001827	16.77823877	5.71861453
Ti	14.25746517	27.21277689	5.49395438
Ti	29.57060423	16.88165638	5.56021293
Ti	29.43396311	27.28121195	5.52152438
Ti	18.18214014	16.78274371	5.51012813
Ti	18.01274700	27.26352283	5.48043875
O	21.84955436	17.87628100	3.96240930
O	21.98711199	28.29004240	3.93316993
O	8.35518458	12.61194987	3.99824198
O	8.71528450	23.06566979	3.95462278
O	23.66664769	12.58653324	3.93056973
O	23.85006916	23.16391958	3.95608786
O	8.58786978	20.28042532	4.66200546
O	8.53766039	30.68950313	4.78678583
O	23.87324217	20.12638186	4.67968705
O	23.67293516	30.60422983	4.76610289
O	21.83912011	14.91930670	4.76750803
O	21.92024509	25.38174165	4.80646791
O	21.82100583	11.09381188	5.71543066
O	21.86063714	21.54942117	5.76931763
O	8.51594203	16.38002964	5.80261608
O	8.49385685	26.92389803	5.57654428
O	23.89340652	16.28352369	5.74792551
O	23.78422872	26.74411780	5.90335655
O	8.35108893	13.42082945	6.45129347
O	8.44242384	23.85311954	6.31692458
O	23.67676142	13.36307945	6.34619365
O	23.70433301	23.75227580	6.38698007
O	21.98223479	18.64382758	6.35525793
O	21.91905678	28.98083208	6.38708372
O	10.22834422	17.80724519	3.85031679
O	10.50064786	28.26991953	3.91188414
O	25.65036856	17.72249648	3.95588970
O	25.67785845	28.26056703	3.90229064
O	14.41097970	17.83146867	3.98243431
O	14.29816411	28.27667802	3.92269520
O	29.57374772	17.84806920	3.95884919
O	29.62143319	28.36952071	3.97956258
O	18.10466042	17.77131774	3.88628686
O	18.05857905	28.30876236	3.88501768
O	12.32441105	12.58712911	3.88956942
O	12.19403202	23.12817654	3.93365030
O	27.58802945	12.64661925	3.92635640
O	27.68489576	23.00310003	3.92729402
O	16.23089950	12.57893423	3.97287311
O	16.01276055	23.02185151	3.92681954
O	19.99078188	12.60156869	3.92981402
O	19.89201849	23.12471048	3.88145158
O	12.32216476	20.16744399	4.71995482
O	12.44153322	30.49363241	4.62969510
O	27.62854112	20.17713217	4.60835090
O	27.51107437	30.54484182	4.71522829
O	16.14918446	20.08325065	4.84492168
O	16.16222100	30.57264912	4.69328985
O	19.92993979	20.19018875	4.66001049
O	19.91261780	30.63912711	4.67426920
O	10.42715536	14.87024938	4.90556055
O	10.48379013	25.36670291	4.95466329
O	25.87600948	14.84300379	5.00289433
O	25.72171604	25.38316053	4.80946756
O	14.26343485	14.94376537	4.75201923
O	14.35011039	25.30224354	4.76628367
O	29.67430568	15.05113748	4.63483180
O	29.38750777	25.41475636	4.72563655
O	18.16292424	14.89577037	4.75737704
O	18.02932454	25.38099035	4.76995307
O	10.42159776	10.97393267	5.77141013
O	10.47356315	21.56360901	5.94516627
O	25.61904342	11.17724250	5.75881322
O	25.72705989	21.52195038	5.80123733
O	14.10331050	10.99169774	5.89559995
O	14.25677413	21.62390207	5.60205743
O	29.54370131	11.09664916	5.74035247
O	29.46348498	21.59709680	5.64103625
O	17.96876510	11.15775873	5.67412124
O	18.03778746	21.49727845	5.93202207
O	12.35391834	16.51172373	5.52148385
O	12.33210284	26.77502540	5.77923646
O	27.72006031	16.34988918	5.83187990
O	27.57758551	26.78392835	5.80453486
O	16.29386302	16.30455501	5.65505929
O	16.13891979	26.68844410	5.91474928
O	20.10443529	16.29289593	5.81128421
O	19.89850371	26.88190382	5.49319975
O	12.21280037	13.37158789	6.27828020
O	12.45085029	23.71265343	6.29174305
O	27.88440760	13.28754802	6.33447197
O	27.70574573	23.79205363	6.42482519
O	16.03843340	13.41321328	6.32117874
O	16.20316443	23.78271561	6.34231285
O	19.73044635	13.30567214	6.33753169
O	19.97507522	23.88751991	6.21994364
O	10.46467974	18.66016159	6.31710852
O	10.66131428	28.92709363	6.39636302
O	25.97591533	18.46665430	6.28175045
O	25.64982990	29.00547661	6.30899743
O	14.23656139	18.66303649	6.27364506
O	14.26525525	28.96736482	6.34882999
O	29.39703188	18.69086957	6.33392914
O	29.53326284	29.05196291	6.40946375
O	17.99025366	18.60250398	6.29360739
O	18.09679515	29.01074490	6.25679930
H	13.04964494	14.30224426	7.89942900
H	13.53830708	14.95190983	11.09840598
H	13.92694278	18.70785193	8.97535396
O	14.22023545	16.26535216	7.54513511
O	13.06760514	14.78543356	8.76980304
C	13.70421392	15.93866491	8.68987674
C	13.82106845	16.75762274	9.86221040
C	13.69058649	16.05909600	11.09930110
C	14.00211302	18.15309135	9.89560452
N	12.92610494	19.57124880	15.72288001
N	15.77443977	22.33672511	16.92476618
N	15.64193840	20.58544552	14.56670665
N	13.26669468	21.24361862	18.08163565
C	20.87740398	23.24358628	13.95742326
C	16.29072604	23.00556327	22.92605336
C	7.52381407	19.35798923	18.00961759
C	18.46683382	23.07940321	14.31007084
C	15.34048158	23.14868769	20.65980005
C	9.92832608	19.33262354	17.95913933
C	19.34570027	24.80066034	12.88081972
C	15.07800654	25.03138881	22.30129384
C	8.71797362	17.49394608	18.99197574
C	14.04983096	18.95720892	13.57715416
C	17.26683088	22.42160147	14.92195531
C	14.94537259	22.59586492	19.28666570
C	11.22015847	19.91300929	17.54216836
C	15.26192993	19.67069819	13.63797209
C	16.72839290	21.35805565	14.19682872
C	13.82487956	21.76761163	19.17150441
C	12.04479614	20.70461059	18.32747960
C	16.16697818	19.86278490	12.51252686
C	17.05365240	20.88584394	12.87011364
C	12.92529897	21.48414755	20.24679069
C	11.79941978	20.87469337	19.74672194
C	13.00007495	18.95989219	14.50752640
C	16.95386061	22.75746327	16.25030602
C	15.87304292	22.77260223	18.24204382
C	11.62053247	19.60822948	16.17777909
C	11.66968243	18.47391814	14.19263132
C	17.69859471	23.65380951	17.10931856
C	17.06022792	23.62379507	18.34374467
C	10.81875106	18.91644571	15.19606773
H	11.23801540	17.85123129	13.37678059
H	18.64790731	24.13277662	16.82034995
H	17.51994157	24.09891008	19.24474166
H	9.75407220	18.65617804	15.23947622
H	16.23867353	19.13471186	11.71512732
H	17.86932408	21.13973532	12.23438735
H	13.03891089	21.81686151	21.29703390
H	10.86514840	20.56476279	20.28446340
H	19.20448768	25.74610910	12.27147238
H	14.68429800	25.99792808	22.56789581
H	8.62680955	16.55190355	19.51984884
H	21.92894139	22.98073392	14.22203286
H	16.87511315	22.42020699	23.61633255
H	6.56816310	19.80767969	17.72200416
H	15.13249203	20.75911094	15.46320301
H	13.61808701	21.05796864	17.11000980
C	21.77042495	25.34583357	12.85923633
H	22.54478634	25.36204695	13.59300794
H	21.39382318	26.34738150	12.68272549
H	22.26343702	25.06504855	11.84205001
C	19.95516903	21.30393521	15.29191126
H	19.00379923	20.91866074	15.70534149
H	20.59776604	21.53469862	16.17942121
H	20.45453876	20.50041264	14.76457487
C	16.88114080	24.81653380	13.33482705
H	16.92496996	25.89044953	13.15413112
H	16.21374937	24.67866292	14.17391538
H	16.46054094	24.39062730	12.46110156
C	11.23273187	17.38048863	18.72884331
H	11.13313017	16.32911118	18.84381428
H	11.81090576	17.68655697	19.64082500
H	11.85852043	17.62245487	17.86094728
C	8.70876828	21.25526002	16.84528162
H	9.05417519	21.14658662	15.79958044
H	9.38850686	22.00885565	17.32062084
H	7.67776575	21.58517962	16.87314775
C	6.15576677	17.59799213	19.11242241
H	6.24437386	17.07585856	20.06596415
H	5.88850607	16.92865441	18.29670045
H	5.41874592	18.45234860	19.23418849
C	13.96106610	25.16769821	20.04301890
H	13.30685603	25.95358708	20.52372648
H	13.26149126	24.48478971	19.44574707
H	14.60175830	25.70681574	19.28374548
C	16.76262243	21.19260307	21.35370072
H	17.50799796	21.46817390	20.53140316
H	16.06565761	20.42055748	20.93168219
H	17.37449282	20.78953087	22.18321481
C	16.16254693	24.91516112	24.61106847
H	15.58257356	24.49003081	25.38533216
H	16.04969132	26.01727412	24.60045735
H	17.21365972	24.76470836	24.78356835
C	20.68562851	24.40461421	13.20400808
C	19.76073560	22.52043088	14.47162634
C	18.27295512	24.18193900	13.49330282
C	14.82271963	24.43346413	21.02150127
C	16.08618524	22.45427469	21.66283248
C	15.82278876	24.33952482	23.25550237
C	9.92084528	18.03943380	18.56559796
C	8.70314029	19.96573012	17.62477801
C	7.49876171	18.15895589	18.75565499
H	13.35560462	16.13677087	13.19224976
H	14.38924169	19.90820118	11.07875301
C	13.88253774	18.18184488	12.32230916
C	13.65095821	16.75104789	12.33802021
C	14.10398998	18.82744739	11.11449762

Ti O H C N 0
6-31G*
****

