%chk=f00015650.chk
%mem=24GB
%nproc=12
#p b3lyp/6-31G*

title

0 1
Ti	2.81187400	0.19704000	1.10336000
Ti	0.90594400	5.44057000	1.10336000
Ti	4.71781400	5.44057000	1.10336000
Ti	0.90594400	2.47241000	1.99114000
Ti	4.71781400	2.47241000	1.99114000
Ti	2.81187400	7.71594000	1.99115000
O	2.81187400	8.81302000	0.37332000
O	0.90594400	3.56949000	0.37332000
O	4.71781400	3.56949000	0.37332000
O	0.90594400	0.60134000	1.26110000
O	4.71781400	0.60134000	1.26110000
O	2.81187400	5.84486000	1.26111000
O	2.81187400	2.06812000	1.83340000
O	0.90594400	7.31164000	1.83340000
O	4.71781400	7.31164000	1.83340000
O	0.90594400	4.34349000	2.72118000
O	4.71781400	4.34349000	2.72118000
O	2.81187400	9.58701000	2.72118000
Ti	6.62374588	0.19704000	1.10336000
Ti	21.87123776	0.19704000	1.10336000
Ti	8.52968588	5.44057000	1.10336000
Ti	23.77717776	5.44057000	1.10336000
Ti	8.52968588	2.47241000	1.99114000
Ti	23.77717776	2.47241000	1.99114000
Ti	6.62374588	7.71594000	1.99115000
Ti	21.87123776	7.71594000	1.99115000
Ti	10.43561588	0.19704000	1.10336000
Ti	25.68310776	0.19704000	1.10336000
Ti	14.24749588	0.19704000	1.10336000
Ti	29.49498776	0.19704000	1.10336000
Ti	18.05936588	0.19704000	1.10336000
Ti	12.34155588	5.44057000	1.10336000
Ti	27.58904776	5.44057000	1.10336000
Ti	16.15343588	5.44057000	1.10336000
Ti	19.96530588	5.44057000	1.10336000
Ti	12.34155588	2.47241000	1.99114000
Ti	27.58904776	2.47241000	1.99114000
Ti	16.15343588	2.47241000	1.99114000
Ti	19.96530588	2.47241000	1.99114000
Ti	10.43561588	7.71594000	1.99115000
Ti	25.68310776	7.71594000	1.99115000
Ti	14.24749588	7.71594000	1.99115000
Ti	29.49498776	7.71594000	1.99115000
Ti	18.05936588	7.71594000	1.99115000
O	6.62374588	8.81302000	0.37332000
O	21.87123776	8.81302000	0.37332000
O	8.52968588	3.56949000	0.37332000
O	23.77717776	3.56949000	0.37332000
O	8.52968588	0.60134000	1.26110000
O	23.77717776	0.60134000	1.26110000
O	6.62374588	5.84486000	1.26111000
O	21.87123776	5.84486000	1.26111000
O	6.62374588	2.06812000	1.83340000
O	21.87123776	2.06812000	1.83340000
O	8.52968588	7.31164000	1.83340000
O	23.77717776	7.31164000	1.83340000
O	8.52968588	4.34349000	2.72118000
O	23.77717776	4.34349000	2.72118000
O	6.62374588	9.58701000	2.72118000
O	21.87123776	9.58701000	2.72118000
O	10.43561588	8.81302000	0.37332000
O	25.68310776	8.81302000	0.37332000
O	14.24749588	8.81302000	0.37332000
O	29.49498776	8.81302000	0.37332000
O	18.05936588	8.81302000	0.37332000
O	12.34155588	3.56949000	0.37332000
O	27.58904776	3.56949000	0.37332000
O	16.15343588	3.56949000	0.37332000
O	19.96530588	3.56949000	0.37332000
O	12.34155588	0.60134000	1.26110000
O	27.58904776	0.60134000	1.26110000
O	16.15343588	0.60134000	1.26110000
O	19.96530588	0.60134000	1.26110000
O	10.43561588	5.84486000	1.26111000
O	25.68310776	5.84486000	1.26111000
O	14.24749588	5.84486000	1.26111000
O	29.49498776	5.84486000	1.26111000
O	18.05936588	5.84486000	1.26111000
O	10.43561588	2.06812000	1.83340000
O	25.68310776	2.06812000	1.83340000
O	14.24749588	2.06812000	1.83340000
O	29.49498776	2.06812000	1.83340000
O	18.05936588	2.06812000	1.83340000
O	12.34155588	7.31164000	1.83340000
O	27.58904776	7.31164000	1.83340000
O	16.15343588	7.31164000	1.83340000
O	19.96530588	7.31164000	1.83340000
O	12.34155588	4.34349000	2.72118000
O	27.58904776	4.34349000	2.72118000
O	16.15343588	4.34349000	2.72118000
O	19.96530588	4.34349000	2.72118000
O	10.43561588	9.58701000	2.72118000
O	25.68310776	9.58701000	2.72118000
O	14.24749588	9.58701000	2.72118000
O	29.49498776	9.58701000	2.72118000
O	18.05936588	9.58701000	2.72118000
Ti	2.81187400	10.68408607	1.10336000
Ti	2.81187400	21.17113214	1.10336000
Ti	0.90594400	15.92761607	1.10336000
Ti	0.90594400	26.41466214	1.10336000
Ti	4.71781400	15.92761607	1.10336000
Ti	4.71781400	26.41466214	1.10336000
Ti	0.90594400	12.95945607	1.99114000
Ti	0.90594400	23.44650214	1.99114000
Ti	4.71781400	12.95945607	1.99114000
Ti	4.71781400	23.44650214	1.99114000
Ti	2.81187400	18.20298607	1.99115000
Ti	2.81187400	28.69003214	1.99115000
O	2.81187400	19.30006607	0.37332000
O	2.81187400	29.78711214	0.37332000
O	0.90594400	14.05653607	0.37332000
O	0.90594400	24.54358214	0.37332000
O	4.71781400	14.05653607	0.37332000
O	4.71781400	24.54358214	0.37332000
O	0.90594400	11.08838607	1.26110000
O	0.90594400	21.57543214	1.26110000
O	4.71781400	11.08838607	1.26110000
O	4.71781400	21.57543214	1.26110000
O	2.81187400	16.33190607	1.26111000
O	2.81187400	26.81895214	1.26111000
O	2.81187400	12.55516607	1.83340000
O	2.81187400	23.04221214	1.83340000
O	0.90594400	17.79868607	1.83340000
O	0.90594400	28.28573214	1.83340000
O	4.71781400	17.79868607	1.83340000
O	4.71781400	28.28573214	1.83340000
O	0.90594400	14.83053607	2.72118000
O	0.90594400	25.31758214	2.72118000
O	4.71781400	14.83053607	2.72118000
O	4.71781400	25.31758214	2.72118000
O	2.81187400	20.07405607	2.72118000
O	2.81187400	30.56110214	2.72118000
Ti	6.62374588	10.68408607	1.10336000
Ti	6.62374588	21.17113214	1.10336000
Ti	21.87123776	10.68408607	1.10336000
Ti	21.87123776	21.17113214	1.10336000
Ti	8.52968588	15.92761607	1.10336000
Ti	8.52968588	26.41466214	1.10336000
Ti	23.77717776	15.92761607	1.10336000
Ti	23.77717776	26.41466214	1.10336000
Ti	8.52968588	12.95945607	1.99114000
Ti	8.52968588	23.44650214	1.99114000
Ti	23.77717776	12.95945607	1.99114000
Ti	23.77717776	23.44650214	1.99114000
Ti	6.62374588	18.20298607	1.99115000
Ti	6.62374588	28.69003214	1.99115000
Ti	21.87123776	18.20298607	1.99115000
Ti	21.87123776	28.69003214	1.99115000
Ti	10.43561588	10.68408607	1.10336000
Ti	10.43561588	21.17113214	1.10336000
Ti	25.68310776	10.68408607	1.10336000
Ti	25.68310776	21.17113214	1.10336000
Ti	14.24749588	10.68408607	1.10336000
Ti	14.24749588	21.17113214	1.10336000
Ti	29.49498776	10.68408607	1.10336000
Ti	29.49498776	21.17113214	1.10336000
Ti	18.05936588	10.68408607	1.10336000
Ti	18.05936588	21.17113214	1.10336000
Ti	12.34155588	15.92761607	1.10336000
Ti	12.34155588	26.41466214	1.10336000
Ti	27.58904776	15.92761607	1.10336000
Ti	27.58904776	26.41466214	1.10336000
Ti	16.15343588	15.92761607	1.10336000
Ti	16.15343588	26.41466214	1.10336000
Ti	19.96530588	15.92761607	1.10336000
Ti	19.96530588	26.41466214	1.10336000
Ti	12.34155588	12.95945607	1.99114000
Ti	12.34155588	23.44650214	1.99114000
Ti	27.58904776	12.95945607	1.99114000
Ti	27.58904776	23.44650214	1.99114000
Ti	16.15343588	12.95945607	1.99114000
Ti	16.15343588	23.44650214	1.99114000
Ti	19.96530588	12.95945607	1.99114000
Ti	19.96530588	23.44650214	1.99114000
Ti	10.43561588	18.20298607	1.99115000
Ti	10.43561588	28.69003214	1.99115000
Ti	25.68310776	18.20298607	1.99115000
Ti	25.68310776	28.69003214	1.99115000
Ti	14.24749588	18.20298607	1.99115000
Ti	14.24749588	28.69003214	1.99115000
Ti	29.49498776	18.20298607	1.99115000
Ti	29.49498776	28.69003214	1.99115000
Ti	18.05936588	18.20298607	1.99115000
Ti	18.05936588	28.69003214	1.99115000
O	6.62374588	19.30006607	0.37332000
O	6.62374588	29.78711214	0.37332000
O	21.87123776	19.30006607	0.37332000
O	21.87123776	29.78711214	0.37332000
O	8.52968588	14.05653607	0.37332000
O	8.52968588	24.54358214	0.37332000
O	23.77717776	14.05653607	0.37332000
O	23.77717776	24.54358214	0.37332000
O	8.52968588	11.08838607	1.26110000
O	8.52968588	21.57543214	1.26110000
O	23.77717776	11.08838607	1.26110000
O	23.77717776	21.57543214	1.26110000
O	6.62374588	16.33190607	1.26111000
O	6.62374588	26.81895214	1.26111000
O	21.87123776	16.33190607	1.26111000
O	21.87123776	26.81895214	1.26111000
O	6.62374588	12.55516607	1.83340000
O	6.62374588	23.04221214	1.83340000
O	21.87123776	12.55516607	1.83340000
O	21.87123776	23.04221214	1.83340000
O	8.52968588	17.79868607	1.83340000
O	8.52968588	28.28573214	1.83340000
O	23.77717776	17.79868607	1.83340000
O	23.77717776	28.28573214	1.83340000
O	8.52968588	14.83053607	2.72118000
O	8.52968588	25.31758214	2.72118000
O	23.77717776	14.83053607	2.72118000
O	23.77717776	25.31758214	2.72118000
O	6.62374588	20.07405607	2.72118000
O	6.62374588	30.56110214	2.72118000
O	21.87123776	20.07405607	2.72118000
O	21.87123776	30.56110214	2.72118000
O	10.43561588	19.30006607	0.37332000
O	10.43561588	29.78711214	0.37332000
O	25.68310776	19.30006607	0.37332000
O	25.68310776	29.78711214	0.37332000
O	14.24749588	19.30006607	0.37332000
O	14.24749588	29.78711214	0.37332000
O	29.49498776	19.30006607	0.37332000
O	29.49498776	29.78711214	0.37332000
O	18.05936588	19.30006607	0.37332000
O	18.05936588	29.78711214	0.37332000
O	12.34155588	14.05653607	0.37332000
O	12.34155588	24.54358214	0.37332000
O	27.58904776	14.05653607	0.37332000
O	27.58904776	24.54358214	0.37332000
O	16.15343588	14.05653607	0.37332000
O	16.15343588	24.54358214	0.37332000
O	19.96530588	14.05653607	0.37332000
O	19.96530588	24.54358214	0.37332000
O	12.34155588	11.08838607	1.26110000
O	12.34155588	21.57543214	1.26110000
O	27.58904776	11.08838607	1.26110000
O	27.58904776	21.57543214	1.26110000
O	16.15343588	11.08838607	1.26110000
O	16.15343588	21.57543214	1.26110000
O	19.96530588	11.08838607	1.26110000
O	19.96530588	21.57543214	1.26110000
O	10.43561588	16.33190607	1.26111000
O	10.43561588	26.81895214	1.26111000
O	25.68310776	16.33190607	1.26111000
O	25.68310776	26.81895214	1.26111000
O	14.24749588	16.33190607	1.26111000
O	14.24749588	26.81895214	1.26111000
O	29.49498776	16.33190607	1.26111000
O	29.49498776	26.81895214	1.26111000
O	18.05936588	16.33190607	1.26111000
O	18.05936588	26.81895214	1.26111000
O	10.43561588	12.55516607	1.83340000
O	10.43561588	23.04221214	1.83340000
O	25.68310776	12.55516607	1.83340000
O	25.68310776	23.04221214	1.83340000
O	14.24749588	12.55516607	1.83340000
O	14.24749588	23.04221214	1.83340000
O	29.49498776	12.55516607	1.83340000
O	29.49498776	23.04221214	1.83340000
O	18.05936588	12.55516607	1.83340000
O	18.05936588	23.04221214	1.83340000
O	12.34155588	17.79868607	1.83340000
O	12.34155588	28.28573214	1.83340000
O	27.58904776	17.79868607	1.83340000
O	27.58904776	28.28573214	1.83340000
O	16.15343588	17.79868607	1.83340000
O	16.15343588	28.28573214	1.83340000
O	19.96530588	17.79868607	1.83340000
O	19.96530588	28.28573214	1.83340000
O	12.34155588	14.83053607	2.72118000
O	12.34155588	25.31758214	2.72118000
O	27.58904776	14.83053607	2.72118000
O	27.58904776	25.31758214	2.72118000
O	16.15343588	14.83053607	2.72118000
O	16.15343588	25.31758214	2.72118000
O	19.96530588	14.83053607	2.72118000
O	19.96530588	25.31758214	2.72118000
O	10.43561588	20.07405607	2.72118000
O	10.43561588	30.56110214	2.72118000
O	25.68310776	20.07405607	2.72118000
O	25.68310776	30.56110214	2.72118000
O	14.24749588	20.07405607	2.72118000
O	14.24749588	30.56110214	2.72118000
O	29.49498776	20.07405607	2.72118000
O	29.49498776	30.56110214	2.72118000
O	18.05936588	20.07405607	2.72118000
O	18.05936588	30.56110214	2.72118000
Ti	6.60448769	9.14531964	4.73001506
Ti	6.57560723	6.24224105	5.48432952
Ti	2.88460860	9.16675921	4.65535660
Ti	0.84629262	4.07027897	4.91045079
Ti	4.64864027	3.92166650	4.83455897
Ti	1.03039517	1.08223001	5.44472369
Ti	4.77687696	0.98840428	5.55631474
Ti	2.78987710	6.31767926	5.53931463
O	6.75134510	7.18867922	3.88050965
O	6.58774735	4.35795369	4.74870737
O	6.66252737	0.58694226	5.72799179
O	6.59659598	7.97109346	6.32524698
O	2.77145891	7.29054608	3.92796222
O	1.04195695	2.17427242	3.94215080
O	4.68811790	2.08712414	3.97453734
O	0.94592209	9.60398131	4.77888739
O	4.74715267	9.55153070	4.64121884
O	2.74064393	4.47194492	4.93513183
O	2.86198526	0.54462295	5.83805697
O	0.84840055	5.82214757	5.96785148
O	4.63909975	5.74177402	5.85951217
O	0.79793931	2.85526121	6.42770660
O	4.77350693	2.67788771	6.49077994
O	2.69596032	8.09004844	6.31487191
Ti	21.95196091	9.30101840	4.71908818
Ti	8.50711457	3.95101168	4.69480250
Ti	23.72350930	3.87646267	4.81964990
Ti	8.62044473	1.08224213	5.56049200
Ti	23.98627518	1.06544909	5.56590500
Ti	21.83461108	6.35808377	5.44021887
Ti	10.56990914	9.17235815	4.75749910
Ti	25.76962240	9.17735288	4.85729577
Ti	14.38482889	9.12899169	4.75035661
Ti	29.58437972	9.16833787	4.72919010
Ti	18.11733182	9.23960276	4.80990322
Ti	12.38582402	3.95041461	4.64826314
Ti	27.63287794	3.97420367	4.75863541
Ti	16.20706091	4.07635441	4.81957591
Ti	19.97289707	4.05970639	4.73757454
Ti	12.29492684	1.05946830	5.61671454
Ti	27.59170393	1.03387561	5.47113245
Ti	16.14390470	1.03093742	5.39889434
Ti	20.05380921	1.23357288	5.61846925
Ti	10.41328065	6.23674366	5.58838314
Ti	25.57495337	6.20845703	5.42242863
Ti	14.34772327	6.29077274	5.50890607
Ti	29.42911121	6.30719858	5.59391635
Ti	18.12566980	6.33469285	5.52011698
O	21.75843615	7.39133713	3.93664090
O	8.59817779	2.06591315	3.91928004
O	23.91035661	2.02319589	3.92742635
O	8.54387951	9.48276429	5.04107255
O	23.87767548	9.73378939	4.88355292
O	21.83969764	4.44850474	4.70025405
O	21.97090927	0.62929301	5.78120954
O	8.47374397	5.72870013	5.80542471
O	23.66096042	5.86148971	5.76614571
O	8.38135412	2.82542063	6.28826015
O	23.75645587	2.76728209	6.44591586
O	21.87192189	8.23118200	6.33562931
O	10.16407464	7.41848832	4.00984933
O	25.53052740	7.42030340	3.94808153
O	14.41917551	7.28479291	3.85454189
O	29.48272485	7.30957012	3.94347234
O	18.05684341	7.42300184	3.97116046
O	12.47201764	2.04600245	3.98135049
O	27.51140101	2.15465250	3.96645065
O	16.24423938	2.14501052	3.90425268
O	20.03008078	2.15519713	3.96143805
O	12.41936548	9.46743848	4.73613990
O	27.58975105	9.70252529	4.72585833
O	16.24972223	9.70174728	4.90826922
O	19.99156204	9.76405720	4.82144008
O	10.38375115	4.52367226	4.64340638
O	25.63827383	4.27438227	4.91479053
O	14.27623975	4.49746620	4.73531064
O	29.52799322	4.35912737	4.69407930
O	18.03577325	4.53279190	4.81730459
O	10.45137550	0.59964410	5.95541603
O	25.81395126	0.37943809	5.98427585
O	14.25029988	0.44771109	5.86507839
O	29.55749435	0.62688702	5.75347518
O	18.07045070	0.60109093	5.69288710
O	12.41629179	5.75488091	5.75573260
O	27.50067875	5.77179358	5.66287297
O	16.19846663	5.89981624	5.89632604
O	20.01391580	5.88321142	5.83365294
O	12.43921962	2.87832999	6.33912592
O	27.64327463	2.76764678	6.43013566
O	16.32326524	2.81394844	6.32916629
O	20.03229338	2.92511835	6.38256970
O	10.76045336	8.08443583	6.43628197
O	26.01760117	8.01850178	6.29367499
O	14.28753874	8.06089298	6.32720671
O	29.48993452	8.01522958	6.39087339
O	18.26741344	8.06801280	6.39747532
Ti	6.49630938	19.59067788	4.78020510
Ti	6.66877816	30.19710790	4.86772208
Ti	6.63632609	16.75057220	5.53285735
Ti	6.60319642	27.22071504	5.46501499
Ti	2.76322312	19.72192916	4.71207736
Ti	2.87022505	30.27648455	4.71361570
Ti	1.01836840	14.25896207	4.70570421
Ti	0.85273982	24.86549423	4.63886362
Ti	4.67577294	14.43157572	4.80479427
Ti	4.69719910	24.97774941	4.72553219
Ti	1.04983722	11.43966108	5.45268784
Ti	0.87723942	21.96622334	5.40238578
Ti	4.72232786	11.50024839	5.46831871
Ti	4.74865813	22.08484518	5.47527329
Ti	2.81902773	16.88410460	5.62320199
Ti	2.81539253	27.34305757	5.42538277
O	6.58164493	17.76716386	3.95033564
O	6.56192154	28.33587044	3.91361255
O	6.57406126	14.94859051	4.63136675
O	6.56400074	25.37398756	4.78937042
O	6.61237155	11.00051175	5.76717569
O	6.59631579	21.53036794	5.60672205
O	6.53335852	18.45139003	6.32795505
O	6.71192482	28.95743545	6.32324946
O	2.55580917	17.70394457	3.93340183
O	2.80694867	28.34979887	3.90090140
O	1.27899520	12.52180718	3.89750428
O	0.76137781	23.03931702	3.83303076
O	4.73477123	12.61826053	3.90882182
O	4.71266855	23.16768476	3.88470842
O	0.82867178	20.05452267	4.82248859
O	0.95136798	30.73801677	4.77123184
O	4.67431112	20.27143337	4.65504280
O	4.77947771	30.43958569	4.86775897
O	2.76230617	15.01373880	4.85834260
O	2.78510842	25.28819907	4.74858144
O	2.92611231	10.83797837	5.78504316
O	2.81482523	21.64065229	5.63684872
O	0.99330478	16.75988527	6.20343400
O	0.94151912	26.69707453	5.67547454
O	4.69210471	16.27812510	5.83807715
O	4.70065515	26.87552879	5.60040917
O	1.16055656	13.14318031	6.39064048
O	0.89534556	23.70910681	6.21636144
O	4.80207759	13.19954824	6.34645204
O	4.69893126	23.85226249	6.36784018
O	2.87796267	18.78572085	6.39743253
O	2.64661215	29.14295889	6.23250661
Ti	21.90271689	19.72879476	4.78938557
Ti	21.87692240	30.30688284	4.75083860
Ti	8.46372099	14.46998640	4.73206728
Ti	8.42204767	24.97612019	4.71415034
Ti	23.86619380	14.44441634	4.79737102
Ti	23.79926613	24.98324684	4.68195167
Ti	8.52598565	11.50437456	5.52602800
Ti	8.53306545	21.92878697	5.51229860
Ti	23.88767507	11.54702581	5.56425146
Ti	23.74009920	22.04718242	5.64437610
Ti	21.91614180	16.78443459	5.53901374
Ti	21.80329866	27.37289663	5.37729743
Ti	10.37930220	19.72165176	4.67752119
Ti	10.54931390	30.19629331	4.84316681
Ti	25.62076914	19.72599803	4.95190155
Ti	25.76498695	30.16414810	4.67290123
Ti	14.17571174	19.66048427	4.76482065
Ti	14.29668251	30.22759926	4.70176407
Ti	29.35702440	19.71864180	4.69920808
Ti	29.53854135	30.22933939	4.90765259
Ti	18.07351485	19.70123489	4.79609259
Ti	18.19975682	30.15042522	4.68847044
Ti	12.33052658	14.38408710	4.72479855
Ti	12.26119915	24.97765003	4.71631842
Ti	27.66893338	14.52676140	4.86598861
Ti	27.61889843	25.00137919	4.74769891
Ti	16.15684387	14.41542297	4.78823719
Ti	16.12579329	24.84428571	4.71442791
Ti	19.95009543	14.44327939	4.71005202
Ti	19.94820213	24.99331033	4.70981482
Ti	12.46778359	11.46957152	5.47843231
Ti	12.31315192	22.10696609	5.55433396
Ti	27.58670720	11.57652808	5.50044496
Ti	27.56533989	22.02578725	5.49488211
Ti	16.21700007	11.50339772	5.43301526
Ti	16.11698954	21.96731967	5.54095068
Ti	19.97441459	11.57052781	5.49281986
Ti	19.94261763	22.01514563	5.46041342
Ti	10.39073139	16.71206535	5.50340616
Ti	10.42865496	27.29026111	5.36326501
Ti	25.72407530	16.71024789	5.42164473
Ti	25.74207779	27.24357513	5.45972372
Ti	14.18724324	16.77932239	5.64468040
Ti	14.26659945	27.32482924	5.48148447
Ti	29.61047329	16.87737447	5.61003961
Ti	29.60154505	27.29574422	5.43132696
Ti	18.12010227	16.77056697	5.52923754
Ti	18.06741201	27.28858997	5.53048180
O	21.78338320	17.89684327	3.98456690
O	21.61542700	28.42083789	3.89917169
O	8.58151977	12.54236056	3.96198371
O	8.51368500	22.89702983	3.85866569
O	23.87761812	12.58655811	3.95949008
O	23.80763994	23.08421054	4.10415792
O	8.42501741	20.01500054	4.97352065
O	8.58153785	30.69334476	4.79114833
O	23.74651755	20.18876997	4.82691150
O	23.85679679	30.59427091	4.83199895
O	21.89931456	14.76642871	4.86048248
O	21.93064146	25.45836405	4.83278826
O	21.87248704	11.10787661	5.74217528
O	21.81292821	21.63487692	5.64154940
O	8.43448744	16.27591519	5.84488181
O	8.47949058	26.85453534	5.61774532
O	23.81775701	16.33400129	5.68085701
O	23.72947387	26.85274198	5.67200326
O	8.55747394	13.25188770	6.30585917
O	8.35841356	23.79729019	6.33134420
O	23.84601976	13.29541535	6.41877862
O	23.76434900	23.82540614	6.45400846
O	21.97474841	18.63169909	6.37798496
O	22.04154044	29.07498850	6.32452866
O	10.26284584	17.82840471	3.91276017
O	10.39748030	28.34507266	3.89187136
O	25.53084205	17.97437821	3.95265419
O	25.61321941	28.39759757	3.91972344
O	14.26064591	17.82291502	4.00872917
O	14.14840288	28.26150190	3.89968744
O	29.58747122	17.86004802	3.98620091
O	29.65969306	28.44519086	3.99219097
O	18.10452852	17.81607850	3.96896938
O	18.27627807	28.37146390	3.91600428
O	12.31481142	12.49513917	3.89174927
O	12.40403022	22.97118332	3.94510618
O	27.67450107	12.72662726	3.99397347
O	27.31575788	23.16477776	3.99373059
O	16.28160509	12.64352490	3.90139699
O	16.32374972	23.01565326	3.96273103
O	19.71089034	12.61761225	3.98901426
O	20.04793224	23.01087607	3.81919646
O	12.26766389	20.18581369	4.78155066
O	12.43016507	30.69925918	4.69290022
O	27.41150542	20.29025751	4.58557051
O	27.71359704	30.64739648	4.71302273
O	16.19704599	20.05827594	4.76168306
O	16.22719097	30.60146299	4.64859936
O	19.98006035	20.20349087	4.49061874
O	19.99387380	30.87595266	4.76903311
O	10.43970045	14.75735973	5.00721514
O	10.36600695	25.37595037	4.82033058
O	25.70307472	14.88301423	4.84612911
O	25.69796050	25.33073569	4.71913418
O	14.26459586	14.89561664	4.80056643
O	14.21917891	25.33689018	4.77384467
O	29.65155510	14.97389809	4.92265952
O	29.50757615	25.45998977	4.73544145
O	18.05213456	14.86017900	4.91915126
O	18.03500092	25.36960337	4.85030958
O	10.54959483	11.05196416	5.68166648
O	10.34164500	21.48936254	5.79564188
O	25.73100109	11.09166486	5.84011589
O	25.68062987	21.56821216	6.08902538
O	14.37185713	11.03190421	5.65671742
O	14.15324851	21.57544005	5.60053117
O	29.63746507	11.13800250	5.65546939
O	29.43789326	21.64203691	5.72464668
O	18.11278461	11.04773468	5.87590895
O	18.13374670	21.65645640	5.72354498
O	12.30425793	16.31920344	5.44358842
O	12.26712328	26.84797535	5.58148312
O	27.67221115	16.42077582	5.91786863
O	27.56573135	26.74333471	5.66409301
O	16.15669829	16.36943830	5.70162337
O	16.10696081	26.90681413	5.69122863
O	20.00561726	16.36322666	5.73270820
O	19.99921631	26.64651796	5.95038358
O	12.30588873	13.18345143	6.36726357
O	12.34931042	23.84100746	6.43489017
O	27.52831481	13.29743637	6.46946228
O	27.60893743	23.73115955	6.33608451
O	16.14012556	13.25545452	6.32922499
O	15.97701202	23.71524485	6.34094973
O	20.04450218	13.37850811	6.40765905
O	19.86089322	23.75465249	6.27908303
O	10.43119004	18.45117340	6.27270419
O	10.56949776	28.93877825	6.30258426
O	25.73065838	18.51686536	6.44657321
O	25.89476795	28.84700479	6.42566860
O	14.23631706	18.68735943	6.38334741
O	14.13365953	29.03444517	6.32364966
O	29.05880561	18.62861691	6.32795822
O	29.56431902	28.99604027	6.50399373
O	18.19444800	18.51240695	6.34424665
O	18.13024209	28.96669454	6.36131292
H	13.49963560	14.03079631	7.95870529
H	13.62303168	15.05761724	11.31460285
H	13.25947033	18.54820188	8.58670326
O	14.32796094	16.27830777	7.50921767
O	13.38673511	14.59826407	8.77127631
C	13.74331427	15.80482391	8.64751398
C	13.60934661	16.67784951	9.74679529
C	13.60883817	16.13706506	11.07291783
C	13.36795098	18.05060310	9.61937360
N	12.98114284	19.53848969	15.59508719
N	15.33179453	22.45414992	17.01318933
N	15.11929772	21.00828974	14.33289176
N	13.30330533	20.99143984	18.24343384
C	20.26206446	23.99964063	14.26592527
C	16.12674341	23.82166412	22.83174881
C	7.83745056	18.69924123	18.28164844
C	17.89140990	23.53436660	14.40598083
C	14.95353201	23.39490163	20.72169214
C	10.30914790	18.78117601	18.08613569
C	18.72898552	25.27608050	12.91356804
C	14.38113679	25.34380425	22.14072975
C	9.18497593	17.09659857	19.42568882
C	13.80693406	19.26251166	13.25225956
C	16.79156711	22.66143877	14.95950392
C	14.70932165	22.61401014	19.46385289
C	11.57714820	19.40784495	17.64718657
C	14.75346601	20.25924713	13.23940236
C	16.18886780	21.78111266	14.06383040
C	13.65433508	21.67541476	19.38538684
C	12.36318716	20.07436642	18.57043622
C	15.79102700	20.50093872	12.27903491
C	16.64790532	21.47087526	12.73292767
C	12.87726926	21.16660501	20.45146691
C	12.00515247	20.20995065	19.95628720
C	12.87904401	19.04074090	14.31085597
C	16.38180903	23.01430615	16.26175114
C	15.36773019	22.99879954	18.31850939
C	11.89148704	19.13780932	16.28409730
C	11.64148197	18.37116242	14.21995601
C	17.07973609	23.94433663	17.10526657
C	16.46219700	23.91234579	18.33901542
C	11.01556912	18.40199406	15.44468846
H	11.30460608	17.80008772	13.30614605
H	17.90410306	24.55924666	16.77355687
H	16.78878770	24.44988396	19.25654351
H	9.97232440	18.05977608	15.66005967
H	15.84627465	20.02882551	11.26600642
H	17.44254318	21.95949172	12.25148771
H	12.88049237	21.46519880	21.47724604
H	11.30362183	19.68482312	20.55335355
H	18.51736304	26.04349928	12.16792981
H	13.77094301	26.24875803	22.27468909
H	9.34213900	16.12335921	19.95294316
H	21.26039595	23.75858819	14.57523439
H	16.93727786	23.64958466	23.55372465
H	6.82435765	19.00898377	17.96187815
H	14.51773711	21.16755776	15.15680779
H	13.68620296	21.16183994	17.30988466
C	21.21214838	25.79775740	12.94113195
H	21.27670616	26.79898186	13.26316133
H	21.25773233	25.99246152	11.85056665
H	22.09589036	25.24414522	13.26745217
C	19.50579592	22.19569028	15.79994042
H	18.88571822	21.31310212	15.68398585
H	19.51352397	22.60267726	16.77932601
H	20.53758884	21.84680786	15.54586553
C	16.26768866	25.02218942	13.24005742
H	16.35280446	25.43432835	12.26025808
H	16.06968124	25.84219194	13.93065556
H	15.50354887	24.22368722	13.33292506
C	11.63535969	16.86150551	19.07684077
H	11.74504633	16.47001853	20.11443645
H	12.53847520	17.43009493	18.81716485
H	11.61329840	15.88421094	18.50797783
C	8.83793882	20.23641771	16.62131849
H	9.79252589	20.76844186	16.44102993
H	8.04014108	20.91147149	16.82518651
H	8.65282080	19.65807285	15.71272619
C	6.73924081	17.09901841	19.84469414
H	6.97366367	16.67491248	20.85690111
H	6.28663860	16.29038884	19.24222463
H	5.97315580	17.90384803	19.90103669
C	13.01019113	24.95826598	20.12072559
H	13.26274048	25.86362793	19.56436177
H	12.16813126	25.11230132	20.81407418
H	12.72608558	24.17042577	19.42764681
C	16.63809170	21.67734109	21.57015355
H	16.33673744	20.88019724	22.25106770
H	17.73241717	21.83032651	21.83999953
H	16.54566001	21.27922957	20.49676981
C	15.89963967	26.01603966	23.98159651
H	16.63782424	25.63772804	24.63000325
H	15.10283890	26.52037395	24.62632404
H	16.37905557	26.84073389	23.41050175
C	20.03362961	25.04387862	13.36113589
C	19.20275430	23.24593879	14.76201522
C	17.61600984	24.58062868	13.49623603
C	14.15159054	24.53287296	20.97361550
C	15.90840733	22.98508097	21.71237946
C	15.42144813	25.03617201	22.96755288
C	10.37528955	17.63414669	18.89844141
C	9.02303554	19.28212120	17.75354994
C	7.91950816	17.65604181	19.16435486
H	13.91045796	16.43523262	13.07333061
H	13.19759100	19.97337342	10.53730213
C	13.60480803	18.39641245	12.06931080
C	13.68325689	16.99722404	12.16237688
C	13.41337402	18.93950769	10.73995526

Ti O H C N 0
6-31G*
****

