%chk=f00013361.chk
%mem=24GB
%nproc=12
#p b3lyp/6-31G*

title

0 1
Ti	2.81187400	0.19704000	1.10336000
Ti	0.90594400	5.44057000	1.10336000
Ti	4.71781400	5.44057000	1.10336000
Ti	0.90594400	2.47241000	1.99114000
Ti	4.71781400	2.47241000	1.99114000
Ti	2.81187400	7.71594000	1.99115000
O	2.81187400	8.81302000	0.37332000
O	0.90594400	3.56949000	0.37332000
O	4.71781400	3.56949000	0.37332000
O	0.90594400	0.60134000	1.26110000
O	4.71781400	0.60134000	1.26110000
O	2.81187400	5.84486000	1.26111000
O	2.81187400	2.06812000	1.83340000
O	0.90594400	7.31164000	1.83340000
O	4.71781400	7.31164000	1.83340000
O	0.90594400	4.34349000	2.72118000
O	4.71781400	4.34349000	2.72118000
O	2.81187400	9.58701000	2.72118000
Ti	6.62374588	0.19704000	1.10336000
Ti	21.87123776	0.19704000	1.10336000
Ti	8.52968588	5.44057000	1.10336000
Ti	23.77717776	5.44057000	1.10336000
Ti	8.52968588	2.47241000	1.99114000
Ti	23.77717776	2.47241000	1.99114000
Ti	6.62374588	7.71594000	1.99115000
Ti	21.87123776	7.71594000	1.99115000
Ti	10.43561588	0.19704000	1.10336000
Ti	25.68310776	0.19704000	1.10336000
Ti	14.24749588	0.19704000	1.10336000
Ti	29.49498776	0.19704000	1.10336000
Ti	18.05936588	0.19704000	1.10336000
Ti	12.34155588	5.44057000	1.10336000
Ti	27.58904776	5.44057000	1.10336000
Ti	16.15343588	5.44057000	1.10336000
Ti	19.96530588	5.44057000	1.10336000
Ti	12.34155588	2.47241000	1.99114000
Ti	27.58904776	2.47241000	1.99114000
Ti	16.15343588	2.47241000	1.99114000
Ti	19.96530588	2.47241000	1.99114000
Ti	10.43561588	7.71594000	1.99115000
Ti	25.68310776	7.71594000	1.99115000
Ti	14.24749588	7.71594000	1.99115000
Ti	29.49498776	7.71594000	1.99115000
Ti	18.05936588	7.71594000	1.99115000
O	6.62374588	8.81302000	0.37332000
O	21.87123776	8.81302000	0.37332000
O	8.52968588	3.56949000	0.37332000
O	23.77717776	3.56949000	0.37332000
O	8.52968588	0.60134000	1.26110000
O	23.77717776	0.60134000	1.26110000
O	6.62374588	5.84486000	1.26111000
O	21.87123776	5.84486000	1.26111000
O	6.62374588	2.06812000	1.83340000
O	21.87123776	2.06812000	1.83340000
O	8.52968588	7.31164000	1.83340000
O	23.77717776	7.31164000	1.83340000
O	8.52968588	4.34349000	2.72118000
O	23.77717776	4.34349000	2.72118000
O	6.62374588	9.58701000	2.72118000
O	21.87123776	9.58701000	2.72118000
O	10.43561588	8.81302000	0.37332000
O	25.68310776	8.81302000	0.37332000
O	14.24749588	8.81302000	0.37332000
O	29.49498776	8.81302000	0.37332000
O	18.05936588	8.81302000	0.37332000
O	12.34155588	3.56949000	0.37332000
O	27.58904776	3.56949000	0.37332000
O	16.15343588	3.56949000	0.37332000
O	19.96530588	3.56949000	0.37332000
O	12.34155588	0.60134000	1.26110000
O	27.58904776	0.60134000	1.26110000
O	16.15343588	0.60134000	1.26110000
O	19.96530588	0.60134000	1.26110000
O	10.43561588	5.84486000	1.26111000
O	25.68310776	5.84486000	1.26111000
O	14.24749588	5.84486000	1.26111000
O	29.49498776	5.84486000	1.26111000
O	18.05936588	5.84486000	1.26111000
O	10.43561588	2.06812000	1.83340000
O	25.68310776	2.06812000	1.83340000
O	14.24749588	2.06812000	1.83340000
O	29.49498776	2.06812000	1.83340000
O	18.05936588	2.06812000	1.83340000
O	12.34155588	7.31164000	1.83340000
O	27.58904776	7.31164000	1.83340000
O	16.15343588	7.31164000	1.83340000
O	19.96530588	7.31164000	1.83340000
O	12.34155588	4.34349000	2.72118000
O	27.58904776	4.34349000	2.72118000
O	16.15343588	4.34349000	2.72118000
O	19.96530588	4.34349000	2.72118000
O	10.43561588	9.58701000	2.72118000
O	25.68310776	9.58701000	2.72118000
O	14.24749588	9.58701000	2.72118000
O	29.49498776	9.58701000	2.72118000
O	18.05936588	9.58701000	2.72118000
Ti	2.81187400	10.68408607	1.10336000
Ti	2.81187400	21.17113214	1.10336000
Ti	0.90594400	15.92761607	1.10336000
Ti	0.90594400	26.41466214	1.10336000
Ti	4.71781400	15.92761607	1.10336000
Ti	4.71781400	26.41466214	1.10336000
Ti	0.90594400	12.95945607	1.99114000
Ti	0.90594400	23.44650214	1.99114000
Ti	4.71781400	12.95945607	1.99114000
Ti	4.71781400	23.44650214	1.99114000
Ti	2.81187400	18.20298607	1.99115000
Ti	2.81187400	28.69003214	1.99115000
O	2.81187400	19.30006607	0.37332000
O	2.81187400	29.78711214	0.37332000
O	0.90594400	14.05653607	0.37332000
O	0.90594400	24.54358214	0.37332000
O	4.71781400	14.05653607	0.37332000
O	4.71781400	24.54358214	0.37332000
O	0.90594400	11.08838607	1.26110000
O	0.90594400	21.57543214	1.26110000
O	4.71781400	11.08838607	1.26110000
O	4.71781400	21.57543214	1.26110000
O	2.81187400	16.33190607	1.26111000
O	2.81187400	26.81895214	1.26111000
O	2.81187400	12.55516607	1.83340000
O	2.81187400	23.04221214	1.83340000
O	0.90594400	17.79868607	1.83340000
O	0.90594400	28.28573214	1.83340000
O	4.71781400	17.79868607	1.83340000
O	4.71781400	28.28573214	1.83340000
O	0.90594400	14.83053607	2.72118000
O	0.90594400	25.31758214	2.72118000
O	4.71781400	14.83053607	2.72118000
O	4.71781400	25.31758214	2.72118000
O	2.81187400	20.07405607	2.72118000
O	2.81187400	30.56110214	2.72118000
Ti	6.62374588	10.68408607	1.10336000
Ti	6.62374588	21.17113214	1.10336000
Ti	21.87123776	10.68408607	1.10336000
Ti	21.87123776	21.17113214	1.10336000
Ti	8.52968588	15.92761607	1.10336000
Ti	8.52968588	26.41466214	1.10336000
Ti	23.77717776	15.92761607	1.10336000
Ti	23.77717776	26.41466214	1.10336000
Ti	8.52968588	12.95945607	1.99114000
Ti	8.52968588	23.44650214	1.99114000
Ti	23.77717776	12.95945607	1.99114000
Ti	23.77717776	23.44650214	1.99114000
Ti	6.62374588	18.20298607	1.99115000
Ti	6.62374588	28.69003214	1.99115000
Ti	21.87123776	18.20298607	1.99115000
Ti	21.87123776	28.69003214	1.99115000
Ti	10.43561588	10.68408607	1.10336000
Ti	10.43561588	21.17113214	1.10336000
Ti	25.68310776	10.68408607	1.10336000
Ti	25.68310776	21.17113214	1.10336000
Ti	14.24749588	10.68408607	1.10336000
Ti	14.24749588	21.17113214	1.10336000
Ti	29.49498776	10.68408607	1.10336000
Ti	29.49498776	21.17113214	1.10336000
Ti	18.05936588	10.68408607	1.10336000
Ti	18.05936588	21.17113214	1.10336000
Ti	12.34155588	15.92761607	1.10336000
Ti	12.34155588	26.41466214	1.10336000
Ti	27.58904776	15.92761607	1.10336000
Ti	27.58904776	26.41466214	1.10336000
Ti	16.15343588	15.92761607	1.10336000
Ti	16.15343588	26.41466214	1.10336000
Ti	19.96530588	15.92761607	1.10336000
Ti	19.96530588	26.41466214	1.10336000
Ti	12.34155588	12.95945607	1.99114000
Ti	12.34155588	23.44650214	1.99114000
Ti	27.58904776	12.95945607	1.99114000
Ti	27.58904776	23.44650214	1.99114000
Ti	16.15343588	12.95945607	1.99114000
Ti	16.15343588	23.44650214	1.99114000
Ti	19.96530588	12.95945607	1.99114000
Ti	19.96530588	23.44650214	1.99114000
Ti	10.43561588	18.20298607	1.99115000
Ti	10.43561588	28.69003214	1.99115000
Ti	25.68310776	18.20298607	1.99115000
Ti	25.68310776	28.69003214	1.99115000
Ti	14.24749588	18.20298607	1.99115000
Ti	14.24749588	28.69003214	1.99115000
Ti	29.49498776	18.20298607	1.99115000
Ti	29.49498776	28.69003214	1.99115000
Ti	18.05936588	18.20298607	1.99115000
Ti	18.05936588	28.69003214	1.99115000
O	6.62374588	19.30006607	0.37332000
O	6.62374588	29.78711214	0.37332000
O	21.87123776	19.30006607	0.37332000
O	21.87123776	29.78711214	0.37332000
O	8.52968588	14.05653607	0.37332000
O	8.52968588	24.54358214	0.37332000
O	23.77717776	14.05653607	0.37332000
O	23.77717776	24.54358214	0.37332000
O	8.52968588	11.08838607	1.26110000
O	8.52968588	21.57543214	1.26110000
O	23.77717776	11.08838607	1.26110000
O	23.77717776	21.57543214	1.26110000
O	6.62374588	16.33190607	1.26111000
O	6.62374588	26.81895214	1.26111000
O	21.87123776	16.33190607	1.26111000
O	21.87123776	26.81895214	1.26111000
O	6.62374588	12.55516607	1.83340000
O	6.62374588	23.04221214	1.83340000
O	21.87123776	12.55516607	1.83340000
O	21.87123776	23.04221214	1.83340000
O	8.52968588	17.79868607	1.83340000
O	8.52968588	28.28573214	1.83340000
O	23.77717776	17.79868607	1.83340000
O	23.77717776	28.28573214	1.83340000
O	8.52968588	14.83053607	2.72118000
O	8.52968588	25.31758214	2.72118000
O	23.77717776	14.83053607	2.72118000
O	23.77717776	25.31758214	2.72118000
O	6.62374588	20.07405607	2.72118000
O	6.62374588	30.56110214	2.72118000
O	21.87123776	20.07405607	2.72118000
O	21.87123776	30.56110214	2.72118000
O	10.43561588	19.30006607	0.37332000
O	10.43561588	29.78711214	0.37332000
O	25.68310776	19.30006607	0.37332000
O	25.68310776	29.78711214	0.37332000
O	14.24749588	19.30006607	0.37332000
O	14.24749588	29.78711214	0.37332000
O	29.49498776	19.30006607	0.37332000
O	29.49498776	29.78711214	0.37332000
O	18.05936588	19.30006607	0.37332000
O	18.05936588	29.78711214	0.37332000
O	12.34155588	14.05653607	0.37332000
O	12.34155588	24.54358214	0.37332000
O	27.58904776	14.05653607	0.37332000
O	27.58904776	24.54358214	0.37332000
O	16.15343588	14.05653607	0.37332000
O	16.15343588	24.54358214	0.37332000
O	19.96530588	14.05653607	0.37332000
O	19.96530588	24.54358214	0.37332000
O	12.34155588	11.08838607	1.26110000
O	12.34155588	21.57543214	1.26110000
O	27.58904776	11.08838607	1.26110000
O	27.58904776	21.57543214	1.26110000
O	16.15343588	11.08838607	1.26110000
O	16.15343588	21.57543214	1.26110000
O	19.96530588	11.08838607	1.26110000
O	19.96530588	21.57543214	1.26110000
O	10.43561588	16.33190607	1.26111000
O	10.43561588	26.81895214	1.26111000
O	25.68310776	16.33190607	1.26111000
O	25.68310776	26.81895214	1.26111000
O	14.24749588	16.33190607	1.26111000
O	14.24749588	26.81895214	1.26111000
O	29.49498776	16.33190607	1.26111000
O	29.49498776	26.81895214	1.26111000
O	18.05936588	16.33190607	1.26111000
O	18.05936588	26.81895214	1.26111000
O	10.43561588	12.55516607	1.83340000
O	10.43561588	23.04221214	1.83340000
O	25.68310776	12.55516607	1.83340000
O	25.68310776	23.04221214	1.83340000
O	14.24749588	12.55516607	1.83340000
O	14.24749588	23.04221214	1.83340000
O	29.49498776	12.55516607	1.83340000
O	29.49498776	23.04221214	1.83340000
O	18.05936588	12.55516607	1.83340000
O	18.05936588	23.04221214	1.83340000
O	12.34155588	17.79868607	1.83340000
O	12.34155588	28.28573214	1.83340000
O	27.58904776	17.79868607	1.83340000
O	27.58904776	28.28573214	1.83340000
O	16.15343588	17.79868607	1.83340000
O	16.15343588	28.28573214	1.83340000
O	19.96530588	17.79868607	1.83340000
O	19.96530588	28.28573214	1.83340000
O	12.34155588	14.83053607	2.72118000
O	12.34155588	25.31758214	2.72118000
O	27.58904776	14.83053607	2.72118000
O	27.58904776	25.31758214	2.72118000
O	16.15343588	14.83053607	2.72118000
O	16.15343588	25.31758214	2.72118000
O	19.96530588	14.83053607	2.72118000
O	19.96530588	25.31758214	2.72118000
O	10.43561588	20.07405607	2.72118000
O	10.43561588	30.56110214	2.72118000
O	25.68310776	20.07405607	2.72118000
O	25.68310776	30.56110214	2.72118000
O	14.24749588	20.07405607	2.72118000
O	14.24749588	30.56110214	2.72118000
O	29.49498776	20.07405607	2.72118000
O	29.49498776	30.56110214	2.72118000
O	18.05936588	20.07405607	2.72118000
O	18.05936588	30.56110214	2.72118000
Ti	6.62108151	9.28932338	4.65209962
Ti	6.66498641	6.35698927	5.50471685
Ti	2.87526381	9.29434210	4.70049623
Ti	1.02544883	4.07876140	4.72063996
Ti	4.73783363	4.05874992	4.85951085
Ti	1.05198288	1.13963294	5.45210358
Ti	4.81428056	1.05989989	5.45793630
Ti	2.85136603	6.33699560	5.46704162
O	6.61750320	7.31042805	3.86239463
O	6.60872909	4.48669781	4.66715270
O	6.68724267	0.63698733	5.61184854
O	6.76604552	8.12144060	6.25962121
O	2.92014723	7.36322987	3.85073346
O	1.05855945	2.13684715	3.86320670
O	4.58390397	2.18387509	3.93199704
O	0.91953791	9.75162206	4.80667599
O	4.74463562	9.69078475	4.79599255
O	2.87718118	4.50378552	4.74099268
O	2.92255891	0.53403240	5.90849522
O	0.95605011	5.87052209	5.70695624
O	4.80183616	5.89041802	5.94803471
O	0.94528382	2.91449530	6.33827069
O	4.87952269	2.84435333	6.34484562
O	2.64325791	8.04227066	6.39876689
Ti	21.89895382	9.22419476	4.78992265
Ti	8.57601637	4.03532242	4.68971893
Ti	23.77520422	3.98503372	4.77242043
Ti	8.60282855	1.11650654	5.40974444
Ti	23.88411167	1.05685683	5.46687868
Ti	21.94537311	6.31683464	5.50832333
Ti	10.46870145	9.27199120	4.80070573
Ti	25.68534754	9.40067056	4.74969292
Ti	14.26618559	9.22625125	4.74635786
Ti	29.53784448	9.36970550	4.80782578
Ti	18.24345924	9.26411973	4.80979607
Ti	12.41414974	3.95263098	4.69706943
Ti	27.59980137	4.00757211	4.68196816
Ti	16.15229765	4.14322739	4.70636733
Ti	20.00206240	3.97322747	4.58656366
Ti	12.49804714	1.09210932	5.57362382
Ti	27.66832539	1.07714175	5.36176351
Ti	16.20500316	1.12960591	5.55741963
Ti	20.02644446	1.11928405	5.57464700
Ti	10.44098819	6.34930269	5.53988580
Ti	25.85591556	6.33407368	5.44636849
Ti	14.26833946	6.31026880	5.56574394
Ti	29.48273360	6.39355519	5.49026492
Ti	18.07473822	6.23051869	5.68597975
O	21.78099480	7.35887947	3.93297237
O	8.45797312	2.23234966	3.93067348
O	23.75415143	2.19855609	3.98584117
O	8.56858651	9.60931681	4.70992172
O	23.73422617	9.62382362	4.85031352
O	21.91931072	4.34096160	4.85508458
O	21.93237749	0.66284102	5.73435645
O	8.50320340	5.86935828	5.72107708
O	23.86783852	5.85577383	5.57599844
O	8.58342717	2.83823905	6.33079739
O	23.87032921	2.89243856	6.32748671
O	21.92803861	8.04405535	6.35103792
O	10.58549170	7.36444086	3.98456610
O	25.77249280	7.43360073	3.87855393
O	14.32090566	7.35281708	3.98633439
O	29.27612613	7.33984099	3.93026321
O	17.98856284	7.21877409	4.02106682
O	12.53810286	2.12267018	3.94386074
O	27.61519481	2.19599139	3.85064476
O	16.09365458	2.17652069	3.95028082
O	20.02356293	2.05555945	3.97038276
O	12.33798789	9.71851868	4.78781990
O	27.62987060	9.75169300	4.70812213
O	16.17838115	9.50451698	5.08114911
O	20.02408784	9.83333552	4.69918947
O	10.46417836	4.57267358	4.62343129
O	25.73951722	4.44360224	4.80849707
O	14.26435216	4.56260570	4.62079004
O	29.53761868	4.50983927	4.73841294
O	18.06040275	4.42931939	4.83175683
O	10.52415328	0.68457952	5.69685179
O	25.80412352	0.58240381	5.73839930
O	14.28156749	0.58294694	5.95461883
O	29.66287622	0.67592934	5.67801859
O	18.07367589	0.51925946	5.93074741
O	12.38991653	5.83169162	5.86368620
O	27.70088731	5.80179505	5.84511504
O	16.22855887	5.82517329	5.98588777
O	19.97490998	5.71136185	5.80373738
O	12.37911224	2.90652300	6.38255437
O	27.72411135	2.79533748	6.31891402
O	16.09176270	2.94388879	6.29425507
O	19.91606592	2.88750396	6.42337064
O	10.47806682	7.98559815	6.29193557
O	25.85715353	8.09411951	6.27698447
O	14.08924438	8.00930921	6.36732054
O	29.52887684	8.19258840	6.33090042
O	18.36605617	8.05486331	6.36658626
Ti	6.51027073	19.67849735	4.76102061
Ti	6.63268437	30.21939412	4.68323659
Ti	6.53476332	16.81561125	5.51854216
Ti	6.62358581	27.43453840	5.51827219
Ti	2.82942896	19.74188413	4.81731247
Ti	2.80242349	30.19383557	4.76412704
Ti	0.84254963	14.57156864	4.79143539
Ti	0.85904440	24.98021245	4.71129075
Ti	4.65891965	14.55687304	4.82330503
Ti	4.75805523	24.93750246	4.64895259
Ti	0.90881454	11.59358414	5.48723324
Ti	0.90616966	22.10276491	5.56116215
Ti	4.62630416	11.62221145	5.52553518
Ti	4.65117097	22.02555786	5.40791979
Ti	2.74845056	16.83123205	5.45582338
Ti	2.76237527	27.29501405	5.44986490
O	6.36324699	17.77826552	3.84005373
O	6.68064447	28.37057565	3.89024278
O	6.53582194	14.93052806	4.80493589
O	6.65628629	25.59726871	4.65448591
O	6.58130700	11.06321058	5.55486383
O	6.54281113	21.53497173	5.77278239
O	6.81267592	18.54382334	6.28600769
O	6.42648528	29.13388792	6.34663250
O	2.82578834	17.94338698	4.00193708
O	2.68425338	28.40375098	3.93074122
O	0.91136091	12.55818304	3.93035678
O	0.98097074	23.09508454	3.95571331
O	4.57792873	12.60593461	3.98741459
O	4.65396712	23.02787299	3.88389662
O	0.94023593	20.13059279	4.88148922
O	1.00830844	30.74804971	4.72377088
O	4.73058617	20.15112008	4.76369775
O	4.66887425	30.67929022	4.57859916
O	2.75324883	15.05285782	4.62581403
O	2.81213249	25.50908038	4.61277712
O	2.73527717	11.09729441	5.88676295
O	2.75480732	21.53094611	5.82952010
O	0.83815766	16.33556707	5.68493370
O	0.92484177	26.76553385	5.71182987
O	4.65609030	16.44383676	5.90324731
O	4.71811231	26.86436170	5.54003724
O	0.91274262	13.40508356	6.36830636
O	0.75032150	23.87467098	6.35658530
O	4.52323712	13.34024448	6.34055222
O	4.66453667	23.82063619	6.28920440
O	2.60719697	18.54040460	6.47155212
O	2.75164928	28.97549608	6.38366008
Ti	21.90743713	19.70256241	4.75657927
Ti	21.88808325	30.30970694	4.84710941
Ti	8.50731614	14.50796885	4.73558621
Ti	8.42830084	24.99935928	4.73296150
Ti	23.75479553	14.48991632	4.88706033
Ti	23.75412939	24.95453015	4.75159010
Ti	8.42280358	11.56916499	5.56890323
Ti	8.49681998	22.06314820	5.46578003
Ti	23.67842932	11.59337156	5.53245686
Ti	23.82412194	21.98955379	5.44843567
Ti	21.76178921	16.82988826	5.70826200
Ti	21.96775140	27.41824835	5.53349596
Ti	10.33202808	19.69139166	4.77522724
Ti	10.48025939	30.24062303	4.72462299
Ti	25.75711759	19.78517047	4.76635148
Ti	25.82261650	30.27473113	4.76279442
Ti	14.13166167	19.62225850	4.69311525
Ti	14.28720514	30.26765273	4.83100524
Ti	29.54313067	19.76179880	4.77759894
Ti	29.65735737	30.30138854	4.69114181
Ti	18.00536220	19.68341615	4.81482399
Ti	18.01285824	30.18384516	4.68959066
Ti	12.39130653	14.46082624	4.79553699
Ti	12.31553600	24.90442888	4.85144131
Ti	27.52833830	14.43136541	4.87556627
Ti	27.57001767	24.89757491	4.73955364
Ti	16.14900448	14.39258221	4.67245012
Ti	16.14982149	24.92650448	4.80063944
Ti	20.01809145	14.46724889	4.72757388
Ti	20.01897415	24.90762616	4.74007410
Ti	12.32134430	11.50874663	5.49524921
Ti	12.38286415	21.94245377	5.52435947
Ti	27.58460852	11.56527633	5.57322685
Ti	27.66788182	22.00190172	5.52649618
Ti	16.16272981	11.49140477	5.49093401
Ti	16.09885084	21.93292057	5.50078278
Ti	19.95797750	11.62651425	5.44414353
Ti	19.98717298	21.94984933	5.41989688
Ti	10.39799330	16.74008367	5.41750839
Ti	10.41544326	27.35011460	5.52569449
Ti	25.68683336	16.86665960	5.55772903
Ti	25.83527416	27.35317164	5.41556705
Ti	14.22286594	16.64460445	5.74375647
Ti	14.30912220	27.26820680	5.46713620
Ti	29.41625997	16.81561685	5.47851911
Ti	29.59900976	27.26485018	5.33877043
Ti	18.08895738	16.65211650	5.41163570
Ti	18.04754735	27.27392361	5.45079861
O	21.99706369	17.79821650	4.06906320
O	21.85811156	28.44155735	3.97620288
O	8.67288088	12.56945901	3.98439514
O	8.21427568	23.09893295	3.88417675
O	23.93189866	12.69575373	3.94845200
O	23.86161085	23.10275177	3.86321078
O	8.44529723	20.12298682	4.88589872
O	8.57536726	30.62357779	4.97128808
O	23.81741932	20.00563136	4.96615681
O	23.77719360	30.66839665	4.78498051
O	21.85274693	15.00575310	4.82223440
O	21.93696910	25.49657261	4.68588171
O	21.83947212	11.16436045	5.70217894
O	21.94103368	21.55361460	5.58365669
O	8.58148646	16.26264662	5.65433121
O	8.58088044	26.90545147	5.77622170
O	23.73862709	16.50364277	5.88045151
O	23.88432215	26.83560384	5.53027374
O	8.42179259	13.31510272	6.46725745
O	8.59225176	23.83662731	6.29516912
O	23.75282746	13.25602354	6.43347509
O	23.91929619	23.77565458	6.35862786
O	21.57481774	18.55647781	6.51405647
O	21.96973119	29.24486739	6.39682331
O	10.42753525	17.78119023	3.91416654
O	10.33855504	28.28887389	3.94496236
O	25.44591194	17.86346515	3.96679242
O	25.76906605	28.37414039	3.88027012
O	14.31060165	17.76631833	3.98556091
O	14.32036382	28.43216955	3.95356131
O	29.39078624	17.97532130	3.95782155
O	29.46932184	28.35581806	3.91002751
O	18.17787412	17.81303381	3.91124190
O	18.05634530	28.31667431	3.88626845
O	12.24280374	12.59642451	3.95930887
O	12.37326584	23.04514301	3.87748104
O	27.70196421	12.60100854	3.99562981
O	27.67700835	23.13226823	3.92893477
O	16.07097621	12.47342795	3.86769324
O	16.23679880	23.07519943	3.95166822
O	20.02213424	12.60959948	3.95117528
O	20.06636234	23.15830535	3.95358744
O	12.23209938	20.13204239	4.81389484
O	12.38745572	30.61193714	4.88145879
O	27.62098081	20.16827246	4.62341608
O	27.69860806	30.67493879	4.78866255
O	16.10824282	20.14987737	4.56050215
O	16.13603974	30.61054082	4.79257159
O	19.95321821	20.05043136	4.73910727
O	19.94865506	30.75876943	4.74233333
O	10.44249113	14.76833267	4.83587722
O	10.42013694	25.43259930	4.72072685
O	25.63966021	14.85247618	4.90826912
O	25.75298652	25.27541253	4.79992441
O	14.23017189	14.93602880	4.71393231
O	14.18627031	25.46719095	4.79001319
O	29.36111806	14.90449708	4.67389703
O	29.47759849	25.39506607	4.60457993
O	18.10720616	14.84593086	4.57530321
O	18.10089989	25.37736068	4.83244107
O	10.40125067	11.02954347	5.82213058
O	10.40606140	21.62407452	5.64841182
O	25.70408381	11.21499846	5.67989586
O	25.81704587	21.56303407	5.65245502
O	14.23661005	11.02254198	5.76123865
O	14.26474842	21.40950577	5.88336796
O	29.53468290	11.05495479	5.86056664
O	29.52871279	21.61179595	5.61383508
O	18.03709593	11.14606816	5.61316957
O	17.99758592	21.49703355	5.70813853
O	12.28155978	16.40324733	5.76178518
O	12.25763418	26.82208622	5.81434881
O	27.57498075	16.24739481	5.77977172
O	27.72611670	26.85433404	5.71900508
O	16.22064678	16.28259388	5.42909540
O	16.16373321	26.90244663	5.58812670
O	19.89977463	16.17519139	5.91788886
O	20.04172128	26.72756590	5.78341631
O	12.25295872	13.28584066	6.37661367
O	12.36992425	23.72474075	6.31528303
O	27.93418096	13.32026300	6.42862407
O	27.64364110	23.74044057	6.42030634
O	16.17414522	13.28020332	6.27702354
O	16.07373321	23.69794646	6.45050916
O	19.84991065	13.41289117	6.35707253
O	19.88010289	23.69860387	6.38937396
O	10.32707006	18.52467553	6.38169799
O	10.47740468	29.09681807	6.28415135
O	25.84272127	18.58898658	6.37750728
O	25.86590031	29.06182769	6.26488817
O	14.23403554	18.55664523	6.34332802
O	14.38206518	28.96741555	6.39957980
O	29.55601059	18.51634463	6.30400679
O	29.50044559	29.11607299	6.31696368
O	17.97169285	18.45899036	6.27517922
O	18.05197699	28.99713495	6.32773397
H	16.05737829	14.52579493	7.74040799
H	16.27070671	15.35277741	11.02719310
H	13.91501616	18.37085580	8.96034970
O	14.44100597	16.17005115	7.58798185
O	16.07822353	15.05395179	8.58758507
C	15.22591526	16.06420248	8.60301881
C	15.18687764	16.83758470	9.83127548
C	15.76960417	16.35310300	11.00701976
C	14.48138019	18.06414395	9.86967912
N	13.60933472	18.89409582	15.68304701
N	15.22580401	22.28755192	17.48589940
N	15.80295309	20.83164256	14.93761223
N	12.80738437	20.54429476	17.91485353
C	20.69689691	24.01813274	15.87019826
C	13.01132214	24.28946104	22.46553413
C	8.24860773	16.68869586	17.17249120
C	18.30252497	23.68250580	15.61897898
C	12.94848548	23.55310582	20.21156127
C	10.54264699	17.48380902	17.40004296
C	19.38400899	25.72561103	14.78860643
C	11.78860200	25.63539027	20.85929466
C	9.73853572	15.65026991	18.76257309
C	15.01256422	18.98699763	13.54696665
C	17.12027332	22.74065884	15.87018938
C	13.43656386	22.59130049	19.16764408
C	11.64824135	18.44329367	17.18692918
C	15.78725257	20.13727413	13.76652893
C	16.68388771	21.90008172	14.83721467
C	12.64229116	21.47459680	18.89765987
C	11.80806523	19.58016758	17.97450503
C	16.75822209	20.73746943	12.88780840
C	17.36937852	21.77783236	13.55200492
C	11.44112682	21.14230412	19.65606052
C	10.96114997	19.95677787	19.10688163
C	13.97780223	18.42280873	14.43757865
C	16.38029648	22.89497460	17.10277926
C	14.71057380	22.91941636	18.62823990
C	12.52532912	18.10826498	16.13857224
C	13.16146028	17.23878988	14.10297485
C	16.65611528	23.89675028	18.09598289
C	15.61032356	23.96115051	18.98294858
C	12.38377232	17.00313618	15.20263236
H	13.46187110	16.58649912	13.29564754
H	17.50698374	24.62248157	18.17480101
H	15.53241246	24.61717620	19.88429387
H	11.59079179	16.19658728	15.19284327
H	16.90523093	20.43351373	11.84446301
H	18.10908305	22.47799718	13.25747614
H	11.13902078	21.65497205	20.53961054
H	10.03136763	19.44791714	19.38885028
H	19.22972820	26.60457500	14.17364685
H	11.19049783	26.52280109	20.62588920
H	9.87866099	14.96856448	19.63713919
H	21.71164267	23.63459557	15.98725987
H	13.31220998	24.14570180	23.46514916
H	7.23994179	16.95636567	16.89386727
H	15.18022726	20.64282377	15.75269866
H	13.55386089	20.54945034	17.18113946
C	21.91219903	26.08065874	15.07436195
H	22.80253756	25.46597059	15.12100046
H	22.05582408	26.84130600	15.87428668
H	21.97566115	26.63852771	14.17301513
C	19.55808172	21.92926664	16.93063020
H	19.45459426	21.18324932	16.15061829
H	18.71228069	21.93899786	17.61643587
H	20.51889978	21.89180047	17.54281821
C	16.91584943	25.33553482	14.22960541
H	16.13353653	24.71162795	14.64275870
H	16.95134507	25.24347920	13.11558520
H	16.67746910	26.37692906	14.41663404
C	12.14641571	16.25126093	18.99439359
H	12.89447558	17.03074274	18.74592740
H	12.59773293	15.31941451	18.61799583
H	11.98480284	16.23934313	20.08062435
C	9.01113504	18.67261573	15.79641646
H	8.06650327	18.57132848	15.29598552
H	9.75541851	18.74494515	15.00472278
H	9.00268157	19.65519848	16.27721840
C	7.30459463	14.96137123	18.76041571
H	7.09251004	14.06446625	18.18509699
H	6.42286150	15.63918487	18.77276142
H	7.45973456	14.54644201	19.74468518
C	11.31913270	24.74979339	18.59265782
H	11.97187314	24.32031036	17.80423523
H	11.12936812	25.81109523	18.30635717
H	10.43975552	24.13321776	18.71690460
C	14.01564265	21.98122256	21.87773271
H	15.04692601	21.90337976	21.33905367
H	13.41963087	21.14488112	21.50953636
H	14.12073105	21.77846947	22.93592691
C	11.99362802	26.47394653	23.24435003
H	10.93118958	26.47525374	23.38647007
H	12.26986179	27.54481368	23.06023599
H	12.51670693	26.15391938	24.16510984
C	20.65791071	25.27906593	15.20070520
C	19.55337049	23.25078419	16.15671443
C	18.25200936	24.90669952	14.90141407
C	12.09291802	24.66278339	19.89447771
C	13.34076904	23.29296107	21.55409981
C	12.35000365	25.52877157	22.10746641
C	10.78707216	16.51878812	18.36941468
C	9.23212734	17.55894447	16.78682665
C	8.45735169	15.76912971	18.21421510
H	16.09957562	16.56623501	13.06681274
H	13.98933283	19.86153296	11.04197456
C	15.07493691	18.30773485	12.23449326
C	15.65690723	17.06149836	12.18733992
C	14.51240632	18.86602622	11.03560983

Ti O H C N 0
6-31G*
****

