%chk=f00016077.chk
%mem=24GB
%nproc=12
#p b3lyp/6-31G*

title

0 1
Ti	2.81187400	0.19704000	1.10336000
Ti	0.90594400	5.44057000	1.10336000
Ti	4.71781400	5.44057000	1.10336000
Ti	0.90594400	2.47241000	1.99114000
Ti	4.71781400	2.47241000	1.99114000
Ti	2.81187400	7.71594000	1.99115000
O	2.81187400	8.81302000	0.37332000
O	0.90594400	3.56949000	0.37332000
O	4.71781400	3.56949000	0.37332000
O	0.90594400	0.60134000	1.26110000
O	4.71781400	0.60134000	1.26110000
O	2.81187400	5.84486000	1.26111000
O	2.81187400	2.06812000	1.83340000
O	0.90594400	7.31164000	1.83340000
O	4.71781400	7.31164000	1.83340000
O	0.90594400	4.34349000	2.72118000
O	4.71781400	4.34349000	2.72118000
O	2.81187400	9.58701000	2.72118000
Ti	6.62374588	0.19704000	1.10336000
Ti	21.87123776	0.19704000	1.10336000
Ti	8.52968588	5.44057000	1.10336000
Ti	23.77717776	5.44057000	1.10336000
Ti	8.52968588	2.47241000	1.99114000
Ti	23.77717776	2.47241000	1.99114000
Ti	6.62374588	7.71594000	1.99115000
Ti	21.87123776	7.71594000	1.99115000
Ti	10.43561588	0.19704000	1.10336000
Ti	25.68310776	0.19704000	1.10336000
Ti	14.24749588	0.19704000	1.10336000
Ti	29.49498776	0.19704000	1.10336000
Ti	18.05936588	0.19704000	1.10336000
Ti	12.34155588	5.44057000	1.10336000
Ti	27.58904776	5.44057000	1.10336000
Ti	16.15343588	5.44057000	1.10336000
Ti	19.96530588	5.44057000	1.10336000
Ti	12.34155588	2.47241000	1.99114000
Ti	27.58904776	2.47241000	1.99114000
Ti	16.15343588	2.47241000	1.99114000
Ti	19.96530588	2.47241000	1.99114000
Ti	10.43561588	7.71594000	1.99115000
Ti	25.68310776	7.71594000	1.99115000
Ti	14.24749588	7.71594000	1.99115000
Ti	29.49498776	7.71594000	1.99115000
Ti	18.05936588	7.71594000	1.99115000
O	6.62374588	8.81302000	0.37332000
O	21.87123776	8.81302000	0.37332000
O	8.52968588	3.56949000	0.37332000
O	23.77717776	3.56949000	0.37332000
O	8.52968588	0.60134000	1.26110000
O	23.77717776	0.60134000	1.26110000
O	6.62374588	5.84486000	1.26111000
O	21.87123776	5.84486000	1.26111000
O	6.62374588	2.06812000	1.83340000
O	21.87123776	2.06812000	1.83340000
O	8.52968588	7.31164000	1.83340000
O	23.77717776	7.31164000	1.83340000
O	8.52968588	4.34349000	2.72118000
O	23.77717776	4.34349000	2.72118000
O	6.62374588	9.58701000	2.72118000
O	21.87123776	9.58701000	2.72118000
O	10.43561588	8.81302000	0.37332000
O	25.68310776	8.81302000	0.37332000
O	14.24749588	8.81302000	0.37332000
O	29.49498776	8.81302000	0.37332000
O	18.05936588	8.81302000	0.37332000
O	12.34155588	3.56949000	0.37332000
O	27.58904776	3.56949000	0.37332000
O	16.15343588	3.56949000	0.37332000
O	19.96530588	3.56949000	0.37332000
O	12.34155588	0.60134000	1.26110000
O	27.58904776	0.60134000	1.26110000
O	16.15343588	0.60134000	1.26110000
O	19.96530588	0.60134000	1.26110000
O	10.43561588	5.84486000	1.26111000
O	25.68310776	5.84486000	1.26111000
O	14.24749588	5.84486000	1.26111000
O	29.49498776	5.84486000	1.26111000
O	18.05936588	5.84486000	1.26111000
O	10.43561588	2.06812000	1.83340000
O	25.68310776	2.06812000	1.83340000
O	14.24749588	2.06812000	1.83340000
O	29.49498776	2.06812000	1.83340000
O	18.05936588	2.06812000	1.83340000
O	12.34155588	7.31164000	1.83340000
O	27.58904776	7.31164000	1.83340000
O	16.15343588	7.31164000	1.83340000
O	19.96530588	7.31164000	1.83340000
O	12.34155588	4.34349000	2.72118000
O	27.58904776	4.34349000	2.72118000
O	16.15343588	4.34349000	2.72118000
O	19.96530588	4.34349000	2.72118000
O	10.43561588	9.58701000	2.72118000
O	25.68310776	9.58701000	2.72118000
O	14.24749588	9.58701000	2.72118000
O	29.49498776	9.58701000	2.72118000
O	18.05936588	9.58701000	2.72118000
Ti	2.81187400	10.68408607	1.10336000
Ti	2.81187400	21.17113214	1.10336000
Ti	0.90594400	15.92761607	1.10336000
Ti	0.90594400	26.41466214	1.10336000
Ti	4.71781400	15.92761607	1.10336000
Ti	4.71781400	26.41466214	1.10336000
Ti	0.90594400	12.95945607	1.99114000
Ti	0.90594400	23.44650214	1.99114000
Ti	4.71781400	12.95945607	1.99114000
Ti	4.71781400	23.44650214	1.99114000
Ti	2.81187400	18.20298607	1.99115000
Ti	2.81187400	28.69003214	1.99115000
O	2.81187400	19.30006607	0.37332000
O	2.81187400	29.78711214	0.37332000
O	0.90594400	14.05653607	0.37332000
O	0.90594400	24.54358214	0.37332000
O	4.71781400	14.05653607	0.37332000
O	4.71781400	24.54358214	0.37332000
O	0.90594400	11.08838607	1.26110000
O	0.90594400	21.57543214	1.26110000
O	4.71781400	11.08838607	1.26110000
O	4.71781400	21.57543214	1.26110000
O	2.81187400	16.33190607	1.26111000
O	2.81187400	26.81895214	1.26111000
O	2.81187400	12.55516607	1.83340000
O	2.81187400	23.04221214	1.83340000
O	0.90594400	17.79868607	1.83340000
O	0.90594400	28.28573214	1.83340000
O	4.71781400	17.79868607	1.83340000
O	4.71781400	28.28573214	1.83340000
O	0.90594400	14.83053607	2.72118000
O	0.90594400	25.31758214	2.72118000
O	4.71781400	14.83053607	2.72118000
O	4.71781400	25.31758214	2.72118000
O	2.81187400	20.07405607	2.72118000
O	2.81187400	30.56110214	2.72118000
Ti	6.62374588	10.68408607	1.10336000
Ti	6.62374588	21.17113214	1.10336000
Ti	21.87123776	10.68408607	1.10336000
Ti	21.87123776	21.17113214	1.10336000
Ti	8.52968588	15.92761607	1.10336000
Ti	8.52968588	26.41466214	1.10336000
Ti	23.77717776	15.92761607	1.10336000
Ti	23.77717776	26.41466214	1.10336000
Ti	8.52968588	12.95945607	1.99114000
Ti	8.52968588	23.44650214	1.99114000
Ti	23.77717776	12.95945607	1.99114000
Ti	23.77717776	23.44650214	1.99114000
Ti	6.62374588	18.20298607	1.99115000
Ti	6.62374588	28.69003214	1.99115000
Ti	21.87123776	18.20298607	1.99115000
Ti	21.87123776	28.69003214	1.99115000
Ti	10.43561588	10.68408607	1.10336000
Ti	10.43561588	21.17113214	1.10336000
Ti	25.68310776	10.68408607	1.10336000
Ti	25.68310776	21.17113214	1.10336000
Ti	14.24749588	10.68408607	1.10336000
Ti	14.24749588	21.17113214	1.10336000
Ti	29.49498776	10.68408607	1.10336000
Ti	29.49498776	21.17113214	1.10336000
Ti	18.05936588	10.68408607	1.10336000
Ti	18.05936588	21.17113214	1.10336000
Ti	12.34155588	15.92761607	1.10336000
Ti	12.34155588	26.41466214	1.10336000
Ti	27.58904776	15.92761607	1.10336000
Ti	27.58904776	26.41466214	1.10336000
Ti	16.15343588	15.92761607	1.10336000
Ti	16.15343588	26.41466214	1.10336000
Ti	19.96530588	15.92761607	1.10336000
Ti	19.96530588	26.41466214	1.10336000
Ti	12.34155588	12.95945607	1.99114000
Ti	12.34155588	23.44650214	1.99114000
Ti	27.58904776	12.95945607	1.99114000
Ti	27.58904776	23.44650214	1.99114000
Ti	16.15343588	12.95945607	1.99114000
Ti	16.15343588	23.44650214	1.99114000
Ti	19.96530588	12.95945607	1.99114000
Ti	19.96530588	23.44650214	1.99114000
Ti	10.43561588	18.20298607	1.99115000
Ti	10.43561588	28.69003214	1.99115000
Ti	25.68310776	18.20298607	1.99115000
Ti	25.68310776	28.69003214	1.99115000
Ti	14.24749588	18.20298607	1.99115000
Ti	14.24749588	28.69003214	1.99115000
Ti	29.49498776	18.20298607	1.99115000
Ti	29.49498776	28.69003214	1.99115000
Ti	18.05936588	18.20298607	1.99115000
Ti	18.05936588	28.69003214	1.99115000
O	6.62374588	19.30006607	0.37332000
O	6.62374588	29.78711214	0.37332000
O	21.87123776	19.30006607	0.37332000
O	21.87123776	29.78711214	0.37332000
O	8.52968588	14.05653607	0.37332000
O	8.52968588	24.54358214	0.37332000
O	23.77717776	14.05653607	0.37332000
O	23.77717776	24.54358214	0.37332000
O	8.52968588	11.08838607	1.26110000
O	8.52968588	21.57543214	1.26110000
O	23.77717776	11.08838607	1.26110000
O	23.77717776	21.57543214	1.26110000
O	6.62374588	16.33190607	1.26111000
O	6.62374588	26.81895214	1.26111000
O	21.87123776	16.33190607	1.26111000
O	21.87123776	26.81895214	1.26111000
O	6.62374588	12.55516607	1.83340000
O	6.62374588	23.04221214	1.83340000
O	21.87123776	12.55516607	1.83340000
O	21.87123776	23.04221214	1.83340000
O	8.52968588	17.79868607	1.83340000
O	8.52968588	28.28573214	1.83340000
O	23.77717776	17.79868607	1.83340000
O	23.77717776	28.28573214	1.83340000
O	8.52968588	14.83053607	2.72118000
O	8.52968588	25.31758214	2.72118000
O	23.77717776	14.83053607	2.72118000
O	23.77717776	25.31758214	2.72118000
O	6.62374588	20.07405607	2.72118000
O	6.62374588	30.56110214	2.72118000
O	21.87123776	20.07405607	2.72118000
O	21.87123776	30.56110214	2.72118000
O	10.43561588	19.30006607	0.37332000
O	10.43561588	29.78711214	0.37332000
O	25.68310776	19.30006607	0.37332000
O	25.68310776	29.78711214	0.37332000
O	14.24749588	19.30006607	0.37332000
O	14.24749588	29.78711214	0.37332000
O	29.49498776	19.30006607	0.37332000
O	29.49498776	29.78711214	0.37332000
O	18.05936588	19.30006607	0.37332000
O	18.05936588	29.78711214	0.37332000
O	12.34155588	14.05653607	0.37332000
O	12.34155588	24.54358214	0.37332000
O	27.58904776	14.05653607	0.37332000
O	27.58904776	24.54358214	0.37332000
O	16.15343588	14.05653607	0.37332000
O	16.15343588	24.54358214	0.37332000
O	19.96530588	14.05653607	0.37332000
O	19.96530588	24.54358214	0.37332000
O	12.34155588	11.08838607	1.26110000
O	12.34155588	21.57543214	1.26110000
O	27.58904776	11.08838607	1.26110000
O	27.58904776	21.57543214	1.26110000
O	16.15343588	11.08838607	1.26110000
O	16.15343588	21.57543214	1.26110000
O	19.96530588	11.08838607	1.26110000
O	19.96530588	21.57543214	1.26110000
O	10.43561588	16.33190607	1.26111000
O	10.43561588	26.81895214	1.26111000
O	25.68310776	16.33190607	1.26111000
O	25.68310776	26.81895214	1.26111000
O	14.24749588	16.33190607	1.26111000
O	14.24749588	26.81895214	1.26111000
O	29.49498776	16.33190607	1.26111000
O	29.49498776	26.81895214	1.26111000
O	18.05936588	16.33190607	1.26111000
O	18.05936588	26.81895214	1.26111000
O	10.43561588	12.55516607	1.83340000
O	10.43561588	23.04221214	1.83340000
O	25.68310776	12.55516607	1.83340000
O	25.68310776	23.04221214	1.83340000
O	14.24749588	12.55516607	1.83340000
O	14.24749588	23.04221214	1.83340000
O	29.49498776	12.55516607	1.83340000
O	29.49498776	23.04221214	1.83340000
O	18.05936588	12.55516607	1.83340000
O	18.05936588	23.04221214	1.83340000
O	12.34155588	17.79868607	1.83340000
O	12.34155588	28.28573214	1.83340000
O	27.58904776	17.79868607	1.83340000
O	27.58904776	28.28573214	1.83340000
O	16.15343588	17.79868607	1.83340000
O	16.15343588	28.28573214	1.83340000
O	19.96530588	17.79868607	1.83340000
O	19.96530588	28.28573214	1.83340000
O	12.34155588	14.83053607	2.72118000
O	12.34155588	25.31758214	2.72118000
O	27.58904776	14.83053607	2.72118000
O	27.58904776	25.31758214	2.72118000
O	16.15343588	14.83053607	2.72118000
O	16.15343588	25.31758214	2.72118000
O	19.96530588	14.83053607	2.72118000
O	19.96530588	25.31758214	2.72118000
O	10.43561588	20.07405607	2.72118000
O	10.43561588	30.56110214	2.72118000
O	25.68310776	20.07405607	2.72118000
O	25.68310776	30.56110214	2.72118000
O	14.24749588	20.07405607	2.72118000
O	14.24749588	30.56110214	2.72118000
O	29.49498776	20.07405607	2.72118000
O	29.49498776	30.56110214	2.72118000
O	18.05936588	20.07405607	2.72118000
O	18.05936588	30.56110214	2.72118000
Ti	6.62604184	9.28971200	4.74959084
Ti	6.62455923	6.28197788	5.45256118
Ti	2.79240752	9.13539705	4.71416991
Ti	0.78819064	3.88533709	4.72421437
Ti	4.59886868	3.93599365	4.66608332
Ti	0.87155824	1.03628379	5.59819044
Ti	4.77993385	1.05611562	5.38748042
Ti	2.79219391	6.25236991	5.52680292
O	6.68084440	7.45365555	3.97790150
O	6.49980928	4.37496450	4.84188429
O	6.57808307	0.53736614	5.93224906
O	6.76115255	7.92108982	6.36915669
O	2.79779527	7.25718796	3.95237430
O	0.90872132	2.06022460	4.02078829
O	4.76610649	2.06691174	3.84871722
O	0.91727163	9.48673917	4.69469414
O	4.76469772	9.57129882	4.84196360
O	2.68841743	4.42923557	4.87611174
O	2.79330348	0.48551860	5.73201497
O	0.83879034	5.87031065	5.82989597
O	4.68602954	5.88135230	5.72328006
O	0.97476468	2.79712549	6.37798684
O	4.51677528	2.78753982	6.22422676
O	2.78246036	7.97615317	6.35308989
Ti	21.81800136	9.20667027	4.83624437
Ti	8.43561127	3.94680809	4.67239646
Ti	23.79675705	4.08837833	4.73557560
Ti	8.45710442	1.07876224	5.54122327
Ti	23.76777487	1.20248107	5.59623186
Ti	21.92334838	6.32470975	5.43962154
Ti	10.49668426	9.17948958	4.91934053
Ti	25.57884495	9.29776357	4.74598101
Ti	14.33510341	9.25873965	4.69715127
Ti	29.45777895	9.16104672	4.77904750
Ti	18.09821042	9.19730915	4.85760440
Ti	12.35914161	3.86810430	4.81792725
Ti	27.47760034	3.99828945	4.66625113
Ti	16.13314574	3.94869258	4.83458172
Ti	19.91768701	4.01718698	4.76138586
Ti	12.34094145	0.97241155	5.54551809
Ti	27.56119508	1.09756377	5.55207825
Ti	16.19028777	1.03618994	5.49620130
Ti	19.91205044	1.11040909	5.62828657
Ti	10.49707345	6.24370476	5.48710676
Ti	25.69621701	6.38733350	5.55538873
Ti	14.31614990	6.28078650	5.56693978
Ti	29.41331645	6.22453231	5.49713985
Ti	18.03392853	6.27698667	5.55133531
O	21.88745846	7.44202612	3.89820937
O	8.33334728	2.08284047	3.93504956
O	23.72441226	2.26324599	4.00956587
O	8.55334422	9.61948145	4.86911906
O	23.71647262	9.57761727	4.81479930
O	21.84375426	4.44341913	4.66082535
O	21.90226515	0.71973964	5.87931666
O	8.50706355	5.73913619	5.67039028
O	23.78605982	5.89768885	5.83869298
O	8.67580790	2.86100055	6.45349722
O	23.76804085	2.93907220	6.37667732
O	21.73643289	7.96781218	6.40472960
O	10.49006087	7.32299495	3.93352958
O	25.72108388	7.33773885	3.93614450
O	14.21295626	7.40237405	3.93846206
O	29.49042328	7.23682591	3.93307001
O	17.95183104	7.39285276	3.96366735
O	12.42925190	2.03275036	3.96444931
O	27.69852231	2.18099034	3.97733771
O	16.03940496	2.02695922	3.92110731
O	19.89131559	2.03446447	4.00534632
O	12.39742029	9.81931507	4.71059416
O	27.52366599	9.70704578	4.75430734
O	16.20573453	9.67790455	4.81992386
O	19.94822255	9.67663303	4.80098621
O	10.49775216	4.26739635	4.62348072
O	25.64418576	4.58207464	4.67733117
O	14.24255946	4.31583003	4.87871961
O	29.46960923	4.35515708	4.81456674
O	18.03039315	4.41244630	4.69452219
O	10.41458121	0.63111097	5.74418299
O	25.69427190	0.61657970	5.84992940
O	14.25034312	0.58619222	5.75045318
O	29.48315676	0.61811487	5.69842634
O	18.09379214	0.54099226	5.88106305
O	12.38761700	5.76266646	5.82801553
O	27.52168992	5.66888565	5.84356609
O	16.08376535	5.74554166	5.83157342
O	19.96217324	5.85114978	5.72565511
O	12.15113572	2.67015445	6.36714299
O	27.34498161	2.82791197	6.34522542
O	16.13308127	2.80199376	6.42212080
O	19.88405499	2.85362060	6.43661675
O	10.33914116	7.93622476	6.31324600
O	25.62570402	8.14698813	6.36894993
O	14.46278570	8.03692141	6.32882967
O	29.45308811	8.02495398	6.28984586
O	18.05634521	8.01736177	6.45127374
Ti	6.57482636	19.75299022	4.78091496
Ti	6.60613582	30.19751973	4.79274678
Ti	6.63136694	16.82474380	5.49868874
Ti	6.60059286	27.25860270	5.46169228
Ti	2.79044836	19.77596737	4.72610591
Ti	2.85087989	30.22671673	4.85001460
Ti	0.92363938	14.31343282	4.69760923
Ti	0.80729645	25.09351575	4.74193106
Ti	4.67476621	14.42796662	4.71023250
Ti	4.71951042	24.95737904	4.75555179
Ti	0.97926510	11.39491562	5.47180658
Ti	0.88315638	22.07937080	5.43789721
Ti	4.79977953	11.55193041	5.44221167
Ti	4.70599028	22.01906445	5.51414438
Ti	2.74114084	16.88587283	5.58654569
Ti	2.77863706	27.33477874	5.47890905
O	6.70615471	17.90005236	3.93357366
O	6.69646028	28.27923361	3.86980972
O	6.54112853	15.01219275	4.62550990
O	6.57955576	25.43285335	4.82401537
O	6.65963910	11.11418069	5.64551044
O	6.57829575	21.63405401	5.83939869
O	6.54327126	18.44984025	6.36370927
O	6.59289171	28.98878573	6.30477230
O	2.68363597	17.84691268	3.93752038
O	2.84123260	28.37949781	3.97483099
O	0.88563557	12.51731542	3.88078009
O	0.69509867	23.13152757	3.96821588
O	4.49995513	12.67216127	3.91160958
O	4.68114423	23.09512035	3.93965445
O	0.91410345	20.23366223	4.82875171
O	0.90401208	30.62467621	4.62615002
O	4.64161636	20.12171342	4.92138207
O	4.75950653	30.62804170	4.66337102
O	2.75392128	15.03806906	4.82035522
O	2.77140726	25.45306553	4.67063801
O	2.89775343	10.99254387	5.73969584
O	2.78741437	21.56737681	5.81676588
O	0.92898361	16.67991691	6.31295988
O	0.81552104	26.81868093	5.74045642
O	4.68014513	16.29643921	5.83158956
O	4.66429852	26.68058332	5.75818999
O	1.07403230	13.26304900	6.28918650
O	0.89781148	23.83670035	6.37003443
O	4.70694553	13.31360715	6.44265559
O	4.56611110	23.70941922	6.33331848
O	2.99823351	18.62213768	6.36724146
O	2.66974380	29.05154268	6.34926361
Ti	21.83258404	19.71548330	4.80688606
Ti	21.97504909	30.07881924	4.82955657
Ti	8.50419790	14.46418084	4.79700615
Ti	8.52481548	24.96293355	4.72790611
Ti	23.84090477	14.51115618	4.74221760
Ti	23.77811360	25.01665647	4.89951381
Ti	8.51143007	11.57683806	5.47000832
Ti	8.41465447	22.03717720	5.55516584
Ti	23.74828264	11.59075699	5.57358558
Ti	23.74919536	22.01832723	5.45538265
Ti	22.01134763	16.81706301	5.49152165
Ti	21.87253921	27.20844467	5.58743768
Ti	10.40280673	19.65088450	4.75860742
Ti	10.44840976	30.19909814	4.81707914
Ti	25.72427913	19.64956866	4.75981210
Ti	25.75581842	30.24781651	4.75864970
Ti	14.19653427	19.71868035	4.73840447
Ti	14.24857608	30.12422738	4.74468074
Ti	29.53649584	19.71192875	4.72888979
Ti	29.49332342	30.19711424	4.61723089
Ti	18.02446427	19.72962141	4.69961392
Ti	18.12563956	30.20925606	4.78410360
Ti	12.42445590	14.46685149	4.83380989
Ti	12.29864558	25.08661468	4.87840043
Ti	27.64657421	14.43165099	4.80405658
Ti	27.50057753	24.95181532	4.76337255
Ti	16.16102377	14.53588149	4.76225643
Ti	16.17493810	25.00009311	4.73490450
Ti	20.00258172	14.57553376	4.72246657
Ti	19.99839656	25.00170139	4.90366019
Ti	12.40504804	11.55929656	5.47177051
Ti	12.21705609	22.01642480	5.45433986
Ti	27.74851138	11.53899546	5.56343191
Ti	27.60099317	22.06709039	5.42297906
Ti	16.17461899	11.63287599	5.55403401
Ti	16.05869671	22.05173484	5.50921090
Ti	19.86429628	11.67424337	5.58726676
Ti	19.86099808	22.03193084	5.43797740
Ti	10.45537890	16.83571412	5.50265893
Ti	10.34667279	27.28452313	5.44368076
Ti	25.86603985	16.75952463	5.43921690
Ti	25.56338503	27.31325235	5.61194167
Ti	14.29940375	16.66651757	5.73990887
Ti	14.33806618	27.27041356	5.51467927
Ti	29.56539010	16.86943362	5.61360764
Ti	29.41448424	27.29387117	5.49539046
Ti	18.13149137	16.85524624	5.50598733
Ti	18.08467143	27.22902032	5.41734948
O	21.97085577	17.92303314	3.97421293
O	21.79472508	28.29203190	3.99301441
O	8.58540314	12.65858572	3.87880534
O	8.39751663	23.08877233	3.96141865
O	23.75517473	12.67341550	3.96530819
O	23.95714910	23.21371949	3.94147457
O	8.46837243	20.16184497	4.74671532
O	8.48638956	30.54633210	5.10769805
O	23.72042712	20.07818710	4.77281530
O	23.81478655	30.75186094	4.78513814
O	21.93769246	14.92714994	4.82861096
O	21.89757106	25.43524847	4.91552829
O	21.81386495	11.13603719	5.64361280
O	21.78144247	21.51237320	5.70974092
O	8.52899902	16.29291269	5.71588568
O	8.49490843	26.88994567	5.71304439
O	23.86197991	16.30931181	5.75864906
O	23.73276350	26.85946501	5.95423807
O	8.47131999	13.33538625	6.38328744
O	8.30465563	23.68602411	6.45205815
O	23.74407176	13.31923994	6.36800444
O	23.83300452	23.63840922	6.43044658
O	21.93749778	18.52894991	6.47217773
O	21.91616088	29.05380768	6.38116665
O	10.41753364	17.79016434	3.92521600
O	10.41257022	28.41813300	3.92334912
O	25.62464177	17.83726271	4.01148034
O	25.48376641	28.37659936	3.96912719
O	13.98927920	17.81146473	3.93847454
O	14.29893935	28.28764504	3.92390066
O	29.64858517	17.90749016	3.98496599
O	29.36866666	28.28333168	3.88651189
O	17.93123407	17.76794235	3.90735999
O	18.19667686	28.37684633	3.96833220
O	12.52696567	12.50549188	3.90707867
O	12.29041211	23.12646761	3.96440029
O	27.84119032	12.61762419	3.98045381
O	27.52030604	23.14753963	3.87647114
O	16.28143044	12.67356758	4.03245736
O	16.07758633	23.19781949	3.98320888
O	19.82357662	12.57303092	3.97502242
O	19.89201905	23.03461586	3.87734158
O	12.32597029	20.06911863	4.96405450
O	12.33367512	30.47466975	4.89630066
O	27.62297262	20.06901087	4.75902490
O	27.63328971	30.66503780	4.64245648
O	16.11889980	20.12963027	4.86662305
O	16.18354564	30.68896406	4.77806085
O	19.97845520	20.14589723	4.69863667
O	20.15858654	30.66236731	4.80629438
O	10.39910378	14.84856360	5.03422047
O	10.39743860	25.38736908	4.71690160
O	25.75227713	14.87931628	4.76862194
O	25.66951979	25.36432047	4.76797535
O	14.27314628	14.90419703	4.78771844
O	14.19002823	25.39043098	4.84449001
O	29.61180845	14.91196004	4.86424899
O	29.43272783	25.44385385	4.67954633
O	18.13604976	15.12467672	4.71046633
O	18.02429277	25.32980964	4.87308882
O	10.50829223	10.96557336	5.89006932
O	10.29035907	21.57379968	5.67520936
O	25.64316665	11.06681957	5.69563978
O	25.78806355	21.42415355	5.61944717
O	14.31540788	11.18607420	5.66540657
O	14.16080200	21.70067568	5.75985897
O	29.61808294	10.96239241	6.01493672
O	29.52534402	21.51480702	5.74842916
O	18.06689001	11.01410043	5.83576689
O	17.97858325	21.52097873	5.80754719
O	12.28376535	16.32425632	5.72779385
O	12.39567306	26.86567084	5.81057258
O	27.68529169	16.37623622	5.73771630
O	27.51370493	26.71312749	5.83833020
O	16.26591976	16.31350490	5.77055957
O	16.17747284	26.72276671	5.74440100
O	20.12702086	16.31944942	5.87603933
O	19.95377692	26.88539957	5.52063865
O	12.17698029	13.26089411	6.31405056
O	12.28571761	23.70711698	6.36659551
O	27.55623965	13.25401059	6.39544963
O	27.32862107	23.78727600	6.42449177
O	16.26782718	13.44381711	6.43554715
O	15.94033537	23.78647533	6.33411680
O	19.91189561	13.37332087	6.39072443
O	19.89108896	23.76365625	6.30967454
O	10.37076730	18.42882775	6.35214534
O	10.39387470	29.00649629	6.42181148
O	25.63189333	18.48982713	6.43565439
O	25.93154859	29.12518980	6.39654768
O	14.50574637	18.59236670	6.29338019
O	14.57900078	29.07169469	6.37772609
O	29.34349316	18.66150118	6.42946978
O	29.35133229	29.05656378	6.31246542
O	18.24910856	18.55325456	6.37162230
O	18.07126540	29.07773388	6.26525422
H	12.92702553	14.02556828	7.90258670
H	13.60756670	14.96577009	11.27079917
H	14.23984849	18.31786820	8.63495463
O	14.30293618	15.93215529	7.49594625
O	13.02722874	14.58288856	8.72899590
C	13.70920485	15.69664848	8.61653459
C	13.76972557	16.53023410	9.79921662
C	13.60058794	16.06278387	11.09531474
C	14.13582937	17.91478066	9.62908322
N	13.05558275	19.77368421	15.44533655
N	15.67931410	22.50681161	16.85150082
N	15.44796664	20.80612106	14.30866869
N	13.37443133	21.33625830	17.99239337
C	20.58349606	23.45583441	13.46246560
C	16.33837591	22.92688250	22.72860293
C	8.14272776	18.97594918	18.93274736
C	18.32270194	23.18656782	14.34692093
C	15.21242017	23.38734511	20.62645237
C	10.46513786	18.91509256	18.08146867
C	18.85581776	25.07465578	12.99239632
C	14.73162685	24.77606073	22.54264411
C	9.28353076	16.87945190	18.78258060
C	13.96168655	19.20573438	13.17612137
C	17.22161282	22.44837724	14.94546214
C	14.91599178	22.89657357	19.22495869
C	11.58766057	19.70725566	17.44237047
C	15.14226239	20.01311047	13.26511500
C	16.63562709	21.43757948	14.15112241
C	13.89622568	21.90714039	19.15997729
C	12.24534322	20.65302425	18.25310772
C	16.21388034	20.20284699	12.29557928
C	17.14678567	21.05801569	12.84208565
C	12.98193849	21.60125471	20.17514480
C	11.96700329	20.83046860	19.65917079
C	12.94527480	19.17102352	14.17917550
C	16.73354325	22.99481578	16.14348528
C	15.59032774	23.30507779	18.03436290
C	11.92376873	19.36354558	16.12622500
C	11.64535222	18.56077988	14.09752692
C	17.28194416	24.20810062	16.78549972
C	16.54404249	24.37501368	17.98482034
C	11.02332012	18.61177483	15.27284905
H	11.39260379	18.14969450	13.14551012
H	18.16161640	24.77107967	16.54194634
H	16.75242423	25.12350417	18.79787493
H	10.03209301	18.26122787	15.58113695
H	16.37106241	19.63632844	11.34814063
H	18.14793847	21.22953351	12.38466016
H	13.09210250	22.08504912	21.19740717
H	11.13223791	20.40386968	20.26729788
H	18.57419837	25.96148228	12.35232482
H	14.14821722	25.61490313	22.98210314
H	9.37072319	15.80342101	18.82946720
H	21.62207225	23.13730387	13.47973707
H	16.96640565	22.28974803	23.38072761
H	7.14987730	19.52474511	19.02666439
H	14.93674643	20.79331439	15.18806844
H	13.71174829	21.41212898	17.03833947
C	21.09954036	25.33755425	11.89346376
H	20.76482006	24.95598909	10.87299462
H	22.12885469	25.07933828	12.01997362
H	21.04870317	26.43797862	11.91935430
C	19.93255453	21.34873220	14.69353463
H	19.37963086	20.58683307	14.10829497
H	19.72496556	21.19960502	15.75879653
H	20.97771993	21.17703836	14.49202920
C	16.50470922	24.89280257	13.59520250
H	16.48945723	25.98332819	13.83061359
H	15.75498406	24.40438135	14.26502044
H	16.29222269	24.78750077	12.53942794
C	11.64440075	16.68897999	18.06998314
H	11.59332416	15.72585885	18.60638216
H	12.54889330	17.20574872	18.54231587
H	11.85033742	16.54740321	17.01162752
C	9.12848268	21.09977838	18.43949654
H	8.96151528	21.45469294	19.47249951
H	8.25233915	21.41217785	17.85946048
H	9.99521719	21.57681913	18.01717390
C	6.79764996	17.00625995	19.58954684
H	6.90222060	16.61890377	20.61942500
H	6.44572780	16.15334278	19.00138062
H	5.98543793	17.79378487	19.53018307
C	13.30594966	25.19341592	20.49734575
H	13.09758072	24.84979482	19.43818107
H	13.55218927	26.30719593	20.38848892
H	12.40560730	25.00942544	21.16027740
C	16.95535022	21.51911985	20.84884872
H	17.77818240	21.90432036	20.23669981
H	16.36448658	20.83130675	20.25265686
H	17.51263712	20.99319891	21.58691706
C	15.67126081	24.21952108	24.76119820
H	16.60424814	23.70077542	25.13260429
H	14.92456405	23.69337225	25.32919142
H	15.67929053	25.26920602	25.09563638
C	20.20538661	24.66602914	12.86866825
C	19.63042679	22.69031278	14.16781921
C	17.91420520	24.41003873	13.73682455
C	14.47106360	24.43498977	21.16309936
C	16.18460981	22.63544581	21.40163314
C	15.60801333	24.01570087	23.27766529
C	10.38964630	17.52767946	18.27615624
C	9.28777682	19.64267845	18.47115465
C	8.08293070	17.60089560	19.07976172
H	13.55676478	16.65844135	13.24003745
H	14.41641553	19.91018506	10.39677185
C	13.91703503	18.35356894	11.95982292
C	13.71915494	16.94422283	12.18198519
C	14.15329980	18.85025557	10.64745401

Ti O H C N 0
6-31G*
****

