%chk=f00015187.chk
%mem=24GB
%nproc=12
#p b3lyp/6-31G*

title

0 1
Ti	2.81187400	0.19704000	1.10336000
Ti	0.90594400	5.44057000	1.10336000
Ti	4.71781400	5.44057000	1.10336000
Ti	0.90594400	2.47241000	1.99114000
Ti	4.71781400	2.47241000	1.99114000
Ti	2.81187400	7.71594000	1.99115000
O	2.81187400	8.81302000	0.37332000
O	0.90594400	3.56949000	0.37332000
O	4.71781400	3.56949000	0.37332000
O	0.90594400	0.60134000	1.26110000
O	4.71781400	0.60134000	1.26110000
O	2.81187400	5.84486000	1.26111000
O	2.81187400	2.06812000	1.83340000
O	0.90594400	7.31164000	1.83340000
O	4.71781400	7.31164000	1.83340000
O	0.90594400	4.34349000	2.72118000
O	4.71781400	4.34349000	2.72118000
O	2.81187400	9.58701000	2.72118000
Ti	6.62374588	0.19704000	1.10336000
Ti	21.87123776	0.19704000	1.10336000
Ti	8.52968588	5.44057000	1.10336000
Ti	23.77717776	5.44057000	1.10336000
Ti	8.52968588	2.47241000	1.99114000
Ti	23.77717776	2.47241000	1.99114000
Ti	6.62374588	7.71594000	1.99115000
Ti	21.87123776	7.71594000	1.99115000
Ti	10.43561588	0.19704000	1.10336000
Ti	25.68310776	0.19704000	1.10336000
Ti	14.24749588	0.19704000	1.10336000
Ti	29.49498776	0.19704000	1.10336000
Ti	18.05936588	0.19704000	1.10336000
Ti	12.34155588	5.44057000	1.10336000
Ti	27.58904776	5.44057000	1.10336000
Ti	16.15343588	5.44057000	1.10336000
Ti	19.96530588	5.44057000	1.10336000
Ti	12.34155588	2.47241000	1.99114000
Ti	27.58904776	2.47241000	1.99114000
Ti	16.15343588	2.47241000	1.99114000
Ti	19.96530588	2.47241000	1.99114000
Ti	10.43561588	7.71594000	1.99115000
Ti	25.68310776	7.71594000	1.99115000
Ti	14.24749588	7.71594000	1.99115000
Ti	29.49498776	7.71594000	1.99115000
Ti	18.05936588	7.71594000	1.99115000
O	6.62374588	8.81302000	0.37332000
O	21.87123776	8.81302000	0.37332000
O	8.52968588	3.56949000	0.37332000
O	23.77717776	3.56949000	0.37332000
O	8.52968588	0.60134000	1.26110000
O	23.77717776	0.60134000	1.26110000
O	6.62374588	5.84486000	1.26111000
O	21.87123776	5.84486000	1.26111000
O	6.62374588	2.06812000	1.83340000
O	21.87123776	2.06812000	1.83340000
O	8.52968588	7.31164000	1.83340000
O	23.77717776	7.31164000	1.83340000
O	8.52968588	4.34349000	2.72118000
O	23.77717776	4.34349000	2.72118000
O	6.62374588	9.58701000	2.72118000
O	21.87123776	9.58701000	2.72118000
O	10.43561588	8.81302000	0.37332000
O	25.68310776	8.81302000	0.37332000
O	14.24749588	8.81302000	0.37332000
O	29.49498776	8.81302000	0.37332000
O	18.05936588	8.81302000	0.37332000
O	12.34155588	3.56949000	0.37332000
O	27.58904776	3.56949000	0.37332000
O	16.15343588	3.56949000	0.37332000
O	19.96530588	3.56949000	0.37332000
O	12.34155588	0.60134000	1.26110000
O	27.58904776	0.60134000	1.26110000
O	16.15343588	0.60134000	1.26110000
O	19.96530588	0.60134000	1.26110000
O	10.43561588	5.84486000	1.26111000
O	25.68310776	5.84486000	1.26111000
O	14.24749588	5.84486000	1.26111000
O	29.49498776	5.84486000	1.26111000
O	18.05936588	5.84486000	1.26111000
O	10.43561588	2.06812000	1.83340000
O	25.68310776	2.06812000	1.83340000
O	14.24749588	2.06812000	1.83340000
O	29.49498776	2.06812000	1.83340000
O	18.05936588	2.06812000	1.83340000
O	12.34155588	7.31164000	1.83340000
O	27.58904776	7.31164000	1.83340000
O	16.15343588	7.31164000	1.83340000
O	19.96530588	7.31164000	1.83340000
O	12.34155588	4.34349000	2.72118000
O	27.58904776	4.34349000	2.72118000
O	16.15343588	4.34349000	2.72118000
O	19.96530588	4.34349000	2.72118000
O	10.43561588	9.58701000	2.72118000
O	25.68310776	9.58701000	2.72118000
O	14.24749588	9.58701000	2.72118000
O	29.49498776	9.58701000	2.72118000
O	18.05936588	9.58701000	2.72118000
Ti	2.81187400	10.68408607	1.10336000
Ti	2.81187400	21.17113214	1.10336000
Ti	0.90594400	15.92761607	1.10336000
Ti	0.90594400	26.41466214	1.10336000
Ti	4.71781400	15.92761607	1.10336000
Ti	4.71781400	26.41466214	1.10336000
Ti	0.90594400	12.95945607	1.99114000
Ti	0.90594400	23.44650214	1.99114000
Ti	4.71781400	12.95945607	1.99114000
Ti	4.71781400	23.44650214	1.99114000
Ti	2.81187400	18.20298607	1.99115000
Ti	2.81187400	28.69003214	1.99115000
O	2.81187400	19.30006607	0.37332000
O	2.81187400	29.78711214	0.37332000
O	0.90594400	14.05653607	0.37332000
O	0.90594400	24.54358214	0.37332000
O	4.71781400	14.05653607	0.37332000
O	4.71781400	24.54358214	0.37332000
O	0.90594400	11.08838607	1.26110000
O	0.90594400	21.57543214	1.26110000
O	4.71781400	11.08838607	1.26110000
O	4.71781400	21.57543214	1.26110000
O	2.81187400	16.33190607	1.26111000
O	2.81187400	26.81895214	1.26111000
O	2.81187400	12.55516607	1.83340000
O	2.81187400	23.04221214	1.83340000
O	0.90594400	17.79868607	1.83340000
O	0.90594400	28.28573214	1.83340000
O	4.71781400	17.79868607	1.83340000
O	4.71781400	28.28573214	1.83340000
O	0.90594400	14.83053607	2.72118000
O	0.90594400	25.31758214	2.72118000
O	4.71781400	14.83053607	2.72118000
O	4.71781400	25.31758214	2.72118000
O	2.81187400	20.07405607	2.72118000
O	2.81187400	30.56110214	2.72118000
Ti	6.62374588	10.68408607	1.10336000
Ti	6.62374588	21.17113214	1.10336000
Ti	21.87123776	10.68408607	1.10336000
Ti	21.87123776	21.17113214	1.10336000
Ti	8.52968588	15.92761607	1.10336000
Ti	8.52968588	26.41466214	1.10336000
Ti	23.77717776	15.92761607	1.10336000
Ti	23.77717776	26.41466214	1.10336000
Ti	8.52968588	12.95945607	1.99114000
Ti	8.52968588	23.44650214	1.99114000
Ti	23.77717776	12.95945607	1.99114000
Ti	23.77717776	23.44650214	1.99114000
Ti	6.62374588	18.20298607	1.99115000
Ti	6.62374588	28.69003214	1.99115000
Ti	21.87123776	18.20298607	1.99115000
Ti	21.87123776	28.69003214	1.99115000
Ti	10.43561588	10.68408607	1.10336000
Ti	10.43561588	21.17113214	1.10336000
Ti	25.68310776	10.68408607	1.10336000
Ti	25.68310776	21.17113214	1.10336000
Ti	14.24749588	10.68408607	1.10336000
Ti	14.24749588	21.17113214	1.10336000
Ti	29.49498776	10.68408607	1.10336000
Ti	29.49498776	21.17113214	1.10336000
Ti	18.05936588	10.68408607	1.10336000
Ti	18.05936588	21.17113214	1.10336000
Ti	12.34155588	15.92761607	1.10336000
Ti	12.34155588	26.41466214	1.10336000
Ti	27.58904776	15.92761607	1.10336000
Ti	27.58904776	26.41466214	1.10336000
Ti	16.15343588	15.92761607	1.10336000
Ti	16.15343588	26.41466214	1.10336000
Ti	19.96530588	15.92761607	1.10336000
Ti	19.96530588	26.41466214	1.10336000
Ti	12.34155588	12.95945607	1.99114000
Ti	12.34155588	23.44650214	1.99114000
Ti	27.58904776	12.95945607	1.99114000
Ti	27.58904776	23.44650214	1.99114000
Ti	16.15343588	12.95945607	1.99114000
Ti	16.15343588	23.44650214	1.99114000
Ti	19.96530588	12.95945607	1.99114000
Ti	19.96530588	23.44650214	1.99114000
Ti	10.43561588	18.20298607	1.99115000
Ti	10.43561588	28.69003214	1.99115000
Ti	25.68310776	18.20298607	1.99115000
Ti	25.68310776	28.69003214	1.99115000
Ti	14.24749588	18.20298607	1.99115000
Ti	14.24749588	28.69003214	1.99115000
Ti	29.49498776	18.20298607	1.99115000
Ti	29.49498776	28.69003214	1.99115000
Ti	18.05936588	18.20298607	1.99115000
Ti	18.05936588	28.69003214	1.99115000
O	6.62374588	19.30006607	0.37332000
O	6.62374588	29.78711214	0.37332000
O	21.87123776	19.30006607	0.37332000
O	21.87123776	29.78711214	0.37332000
O	8.52968588	14.05653607	0.37332000
O	8.52968588	24.54358214	0.37332000
O	23.77717776	14.05653607	0.37332000
O	23.77717776	24.54358214	0.37332000
O	8.52968588	11.08838607	1.26110000
O	8.52968588	21.57543214	1.26110000
O	23.77717776	11.08838607	1.26110000
O	23.77717776	21.57543214	1.26110000
O	6.62374588	16.33190607	1.26111000
O	6.62374588	26.81895214	1.26111000
O	21.87123776	16.33190607	1.26111000
O	21.87123776	26.81895214	1.26111000
O	6.62374588	12.55516607	1.83340000
O	6.62374588	23.04221214	1.83340000
O	21.87123776	12.55516607	1.83340000
O	21.87123776	23.04221214	1.83340000
O	8.52968588	17.79868607	1.83340000
O	8.52968588	28.28573214	1.83340000
O	23.77717776	17.79868607	1.83340000
O	23.77717776	28.28573214	1.83340000
O	8.52968588	14.83053607	2.72118000
O	8.52968588	25.31758214	2.72118000
O	23.77717776	14.83053607	2.72118000
O	23.77717776	25.31758214	2.72118000
O	6.62374588	20.07405607	2.72118000
O	6.62374588	30.56110214	2.72118000
O	21.87123776	20.07405607	2.72118000
O	21.87123776	30.56110214	2.72118000
O	10.43561588	19.30006607	0.37332000
O	10.43561588	29.78711214	0.37332000
O	25.68310776	19.30006607	0.37332000
O	25.68310776	29.78711214	0.37332000
O	14.24749588	19.30006607	0.37332000
O	14.24749588	29.78711214	0.37332000
O	29.49498776	19.30006607	0.37332000
O	29.49498776	29.78711214	0.37332000
O	18.05936588	19.30006607	0.37332000
O	18.05936588	29.78711214	0.37332000
O	12.34155588	14.05653607	0.37332000
O	12.34155588	24.54358214	0.37332000
O	27.58904776	14.05653607	0.37332000
O	27.58904776	24.54358214	0.37332000
O	16.15343588	14.05653607	0.37332000
O	16.15343588	24.54358214	0.37332000
O	19.96530588	14.05653607	0.37332000
O	19.96530588	24.54358214	0.37332000
O	12.34155588	11.08838607	1.26110000
O	12.34155588	21.57543214	1.26110000
O	27.58904776	11.08838607	1.26110000
O	27.58904776	21.57543214	1.26110000
O	16.15343588	11.08838607	1.26110000
O	16.15343588	21.57543214	1.26110000
O	19.96530588	11.08838607	1.26110000
O	19.96530588	21.57543214	1.26110000
O	10.43561588	16.33190607	1.26111000
O	10.43561588	26.81895214	1.26111000
O	25.68310776	16.33190607	1.26111000
O	25.68310776	26.81895214	1.26111000
O	14.24749588	16.33190607	1.26111000
O	14.24749588	26.81895214	1.26111000
O	29.49498776	16.33190607	1.26111000
O	29.49498776	26.81895214	1.26111000
O	18.05936588	16.33190607	1.26111000
O	18.05936588	26.81895214	1.26111000
O	10.43561588	12.55516607	1.83340000
O	10.43561588	23.04221214	1.83340000
O	25.68310776	12.55516607	1.83340000
O	25.68310776	23.04221214	1.83340000
O	14.24749588	12.55516607	1.83340000
O	14.24749588	23.04221214	1.83340000
O	29.49498776	12.55516607	1.83340000
O	29.49498776	23.04221214	1.83340000
O	18.05936588	12.55516607	1.83340000
O	18.05936588	23.04221214	1.83340000
O	12.34155588	17.79868607	1.83340000
O	12.34155588	28.28573214	1.83340000
O	27.58904776	17.79868607	1.83340000
O	27.58904776	28.28573214	1.83340000
O	16.15343588	17.79868607	1.83340000
O	16.15343588	28.28573214	1.83340000
O	19.96530588	17.79868607	1.83340000
O	19.96530588	28.28573214	1.83340000
O	12.34155588	14.83053607	2.72118000
O	12.34155588	25.31758214	2.72118000
O	27.58904776	14.83053607	2.72118000
O	27.58904776	25.31758214	2.72118000
O	16.15343588	14.83053607	2.72118000
O	16.15343588	25.31758214	2.72118000
O	19.96530588	14.83053607	2.72118000
O	19.96530588	25.31758214	2.72118000
O	10.43561588	20.07405607	2.72118000
O	10.43561588	30.56110214	2.72118000
O	25.68310776	20.07405607	2.72118000
O	25.68310776	30.56110214	2.72118000
O	14.24749588	20.07405607	2.72118000
O	14.24749588	30.56110214	2.72118000
O	29.49498776	20.07405607	2.72118000
O	29.49498776	30.56110214	2.72118000
O	18.05936588	20.07405607	2.72118000
O	18.05936588	30.56110214	2.72118000
Ti	6.58523782	9.14497118	4.84493368
Ti	6.68551423	6.27574540	5.57240510
Ti	2.85246523	9.10898323	4.70165986
Ti	0.95523733	3.88674366	4.80122964
Ti	4.70962360	3.89521470	4.73496705
Ti	0.79267602	0.90679618	5.43444879
Ti	4.73380322	0.97910299	5.49665326
Ti	2.82560552	6.23180822	5.53112816
O	6.64792442	7.33605306	3.96753306
O	6.66468158	4.41327606	4.71248925
O	6.59788235	0.54741544	5.62321839
O	6.61173853	7.99736557	6.49844230
O	2.83732629	7.23139807	3.96282151
O	0.87488034	2.05751372	3.95154781
O	4.63141728	2.10344565	3.95951447
O	0.88893005	9.69671910	4.65096874
O	4.74479278	9.59964475	4.90334709
O	2.76597833	4.31544255	4.82305497
O	2.73434026	0.68374681	5.69282772
O	0.93145741	5.81980524	6.06500016
O	4.74657412	5.68841609	5.75170074
O	0.99062837	2.76949534	6.40954843
O	4.83872286	2.69869396	6.33184582
O	2.77486344	8.05961634	6.29676056
Ti	21.96377333	9.29050770	4.76564247
Ti	8.59491623	3.93775279	4.86874703
Ti	23.88019806	4.00307300	4.75718116
Ti	8.47198227	0.97440062	5.48256061
Ti	23.84944714	1.10467687	5.57448723
Ti	22.04538371	6.36905644	5.51210192
Ti	10.46496763	9.15200210	4.69527731
Ti	25.68019681	9.22380562	4.74979524
Ti	14.26509875	9.22286242	4.72278171
Ti	29.46865432	9.20662028	4.73185670
Ti	18.08921404	9.22135416	4.82993995
Ti	12.40104073	3.93299697	4.75258765
Ti	27.70066231	4.03944068	4.79821309
Ti	16.23381279	4.09156522	4.84636740
Ti	20.09284913	3.95205684	4.74586813
Ti	12.32655324	0.98776085	5.51530829
Ti	27.62336341	1.12889704	5.56899812
Ti	16.10817155	1.03727296	5.43100885
Ti	19.95412310	1.09405932	5.53012644
Ti	10.50996477	6.26062078	5.47357013
Ti	25.67572263	6.32225622	5.49859422
Ti	14.22254729	6.27447014	5.56906328
Ti	29.56000341	6.31909127	5.48732720
Ti	18.18604704	6.28191227	5.47384260
O	22.25032320	7.43469414	4.07422940
O	8.57423152	2.09614699	3.96523586
O	23.98270756	2.12246701	3.91121619
O	8.52921873	9.69599812	4.92141203
O	23.84296802	9.75818202	4.87691382
O	21.99371049	4.46483984	4.75283922
O	21.85546105	0.57437080	5.78688381
O	8.62601699	5.69456825	5.87228749
O	23.80827368	5.74442103	5.89551955
O	8.58406556	2.70489091	6.37219844
O	23.73131813	2.85714032	6.40451314
O	21.94985542	8.16625477	6.43360687
O	10.38933124	7.35133173	3.95460650
O	25.52779369	7.34157148	3.91516926
O	14.31921494	7.26387893	3.83563019
O	29.52413684	7.29696440	3.90274873
O	18.09251468	7.41748366	3.97279011
O	12.18507875	2.07187157	3.94636772
O	27.67628928	2.16354983	3.96268906
O	16.17984526	2.16339237	3.90403943
O	20.04145825	2.10944707	3.94582549
O	12.29560514	9.74392367	4.77954074
O	27.59818558	9.67770589	4.74875498
O	16.10817798	9.62604599	4.89236105
O	20.02047571	9.62948507	4.82943560
O	10.51996749	4.46454001	4.75961913
O	25.75077803	4.48995828	4.72504814
O	14.27059371	4.35081956	4.81576906
O	29.56627914	4.44828767	4.82471528
O	18.14364555	4.48283169	4.74128357
O	10.43078571	0.51769512	5.85433804
O	25.68595703	0.65408970	5.76490889
O	14.33050195	0.44049299	5.84359896
O	29.47420356	0.53610550	5.81868754
O	18.06624055	0.67619133	5.86660166
O	12.36790406	5.88240613	5.83320167
O	27.70343474	5.92357439	5.75071446
O	16.29215124	5.71671811	5.83294454
O	20.19174590	5.84338614	5.78431693
O	12.36654013	2.77597519	6.35750618
O	27.65041154	2.94904658	6.33200812
O	16.25456164	2.89932389	6.30718270
O	20.19735185	2.84178389	6.30698055
O	10.31642988	7.98319437	6.33450981
O	25.77441494	8.06842139	6.41112316
O	13.93983180	8.08088615	6.26067498
O	29.36752687	8.04814239	6.24065381
O	18.14115040	8.01960895	6.43562672
Ti	6.60061084	19.66692891	4.78421717
Ti	6.59235412	30.23558180	4.70363100
Ti	6.48740774	16.78006192	5.50907870
Ti	6.60268339	27.33992713	5.46572247
Ti	2.80683827	19.81688762	4.73382683
Ti	2.77821250	30.15643910	4.91491177
Ti	0.79595417	14.33713136	4.72166839
Ti	0.76071009	24.95432583	4.79782661
Ti	4.55078455	14.50139278	4.78413209
Ti	4.69716967	24.89515713	4.64399999
Ti	0.95723723	11.48649717	5.55839775
Ti	0.99101372	22.04946901	5.61405763
Ti	4.71954588	11.53942428	5.51353546
Ti	4.78246132	21.96454476	5.48682243
Ti	2.62498206	16.93399474	5.60419735
Ti	2.79664634	27.23333077	5.52645523
O	6.65086035	17.82179988	3.92688731
O	6.78829246	28.33079589	3.86050061
O	6.52594666	14.80074800	4.82238613
O	6.59454407	25.42491731	4.74185972
O	6.62004209	11.07699511	5.78228293
O	6.62261482	21.35028891	6.03010521
O	6.52720893	18.39725232	6.35747269
O	6.69616075	29.00666826	6.43756527
O	2.71529184	17.90281537	3.95341703
O	2.83965035	28.23365040	4.01543925
O	0.78722904	12.56725615	3.92080256
O	0.89978035	23.08251851	3.99706120
O	4.49917391	12.65343474	4.01048975
O	4.87647055	22.93964565	3.92296736
O	0.85546695	20.15164382	4.82140970
O	0.89673568	30.57063484	4.77530375
O	4.76035855	20.15889401	4.78525248
O	4.68591432	30.51495003	4.92155305
O	2.59075124	15.01344330	4.84556757
O	2.75979150	25.32796572	4.81746652
O	2.80264368	10.95484684	5.82800724
O	2.90663531	21.69478261	5.61493690
O	0.89293670	16.77457467	6.27718364
O	0.93425703	26.80542946	5.56069575
O	4.52008800	16.45253718	5.60649964
O	4.69669550	26.70327326	5.72950733
O	1.00587804	13.25925884	6.32160855
O	0.71378013	23.76193804	6.37617926
O	4.67100853	13.29757996	6.34948701
O	4.72293850	23.81092029	6.27973886
O	3.17283118	18.72301788	6.38512444
O	2.93326028	28.93819006	6.46633478
Ti	21.80985640	19.89741222	4.63781984
Ti	21.93534483	30.26906305	4.83240642
Ti	8.51342188	14.41965435	4.75443584
Ti	8.43968436	25.03110277	4.73216290
Ti	23.76139304	14.48786343	4.72676720
Ti	23.79079422	24.98484132	4.71899542
Ti	8.59205011	11.54529051	5.57310605
Ti	8.50720519	22.14683979	5.61417060
Ti	23.89549982	11.61529254	5.58439022
Ti	23.80974230	22.06828144	5.51453353
Ti	21.87483034	16.88452638	5.47455519
Ti	21.84047758	27.30370379	5.54782771
Ti	10.42520237	19.75177409	4.68519291
Ti	10.38794419	30.07605978	4.80881897
Ti	25.65017039	19.77515900	4.75630349
Ti	25.72248254	30.11977607	4.70004685
Ti	14.13716018	19.67737294	4.81180110
Ti	14.23066778	30.19134933	4.73578983
Ti	29.41641303	19.86343131	4.69327866
Ti	29.38375032	30.22445088	4.58013037
Ti	18.00235636	19.74783015	4.65476114
Ti	18.05261466	30.21964580	4.75775128
Ti	12.29578916	14.53641191	4.63179429
Ti	12.34024374	24.98014376	4.77407047
Ti	27.71230510	14.47764182	4.81373017
Ti	27.51949109	24.90190400	4.58619228
Ti	16.15452063	14.44485688	4.69410484
Ti	16.12300274	24.90551811	4.82774294
Ti	19.95944317	14.48983176	4.78344749
Ti	19.98442394	24.86415175	4.76729213
Ti	12.32543006	11.65725422	5.53084757
Ti	12.35785059	22.03694815	5.51361391
Ti	27.68605707	11.52127021	5.45774182
Ti	27.37522913	22.12725681	5.47962099
Ti	16.11187194	11.56607238	5.44518334
Ti	16.05670913	22.02105426	5.51458590
Ti	19.96436503	11.56721468	5.55173187
Ti	19.87826523	21.98792790	5.65309222
Ti	10.35653694	16.84308456	5.51316538
Ti	10.39999862	27.19774229	5.58540902
Ti	25.64520816	16.73986948	5.55795666
Ti	25.76424602	27.24550218	5.52381586
Ti	14.23394701	16.66368729	5.74636211
Ti	14.26533322	27.26953499	5.43308735
Ti	29.49423619	17.05174485	5.67807350
Ti	29.50628327	27.40651047	5.60988501
Ti	18.04062758	16.81275036	5.50365832
Ti	18.06611898	27.35799984	5.46294568
O	21.91676612	17.91701121	3.89804935
O	22.05244065	28.37161544	3.96780983
O	8.46029030	12.56766482	3.96421517
O	8.54874061	23.14824351	3.87800666
O	23.89759732	12.65811725	3.96684742
O	23.79252371	23.15535925	3.90034484
O	8.48216517	20.24259932	4.77077745
O	8.51358635	30.52078759	4.85018823
O	23.69607841	20.17862067	4.71064903
O	23.78355086	30.74588598	4.73154000
O	21.88758827	14.81056381	5.01871707
O	21.83720755	25.41493123	4.85275365
O	21.94909472	10.97226274	5.78888412
O	21.84038953	21.59818002	5.74821209
O	8.46650931	16.30027107	5.65062771
O	8.49610395	26.79235447	5.74081706
O	23.78232059	16.37174514	5.73049354
O	23.84022785	26.67039714	5.74177437
O	8.51299784	13.32304603	6.42121408
O	8.48370361	23.82004985	6.35037745
O	23.76713384	13.36854053	6.39789123
O	23.85924586	23.89330540	6.29101550
O	21.71443897	18.69129292	6.30784732
O	22.00259937	29.01942446	6.41189438
O	10.39595177	17.94900120	3.97595203
O	10.37925225	28.27676056	3.93519995
O	25.81041828	17.88716401	3.97728615
O	25.82529022	28.27127879	3.91124152
O	14.32773291	17.88281327	3.99348110
O	14.33976064	28.32067016	3.95949767
O	29.56483224	17.93530348	3.94716267
O	29.49351084	28.28926138	3.91265342
O	18.07673077	17.89970340	3.94040797
O	18.16271261	28.32586071	3.87569087
O	12.22542416	12.60733337	3.92422493
O	12.31208205	23.13776557	3.88354296
O	27.66008044	12.55690176	3.95085378
O	27.15644830	23.10182430	3.91220618
O	16.16713943	12.52596112	3.91828977
O	15.86633342	23.12772647	3.95922567
O	19.91921677	12.60896035	3.93887855
O	19.79484944	23.02234677	4.03405455
O	12.31693818	20.28428329	4.55433562
O	12.37832950	30.69279684	4.72268342
O	27.52451131	20.33077133	4.75150425
O	27.56089050	30.62267654	4.83399453
O	16.07723810	20.15554129	4.68791306
O	16.20342480	30.61463220	4.71777550
O	19.92517000	20.09692278	4.69792495
O	19.92945049	30.55867231	5.00090495
O	10.44545611	14.83496437	4.97502384
O	10.43426073	25.33756479	4.78352823
O	25.78904883	14.99954342	4.78409503
O	25.71966343	25.44360736	4.75598548
O	14.17185988	14.89577010	4.74968102
O	14.27080768	25.37399629	4.78180096
O	29.60638399	15.17513123	4.79867713
O	29.42806057	25.42929953	4.80669208
O	18.04913221	14.78450686	4.65830317
O	18.09462447	25.35649830	5.10225545
O	10.44047028	11.28495953	5.80963573
O	10.37948914	21.55185347	5.69033175
O	25.76970337	11.14359777	5.77850599
O	25.60542729	21.50292152	5.80748460
O	14.23865405	11.21006281	5.66341265
O	14.24669779	21.49773364	5.83670618
O	29.57526118	10.88477441	5.84282199
O	29.48853230	21.71570182	5.71719856
O	18.09672032	10.92433899	5.95710234
O	18.01324385	21.41271821	5.87803120
O	12.29018936	16.34231138	5.54233818
O	12.33606655	26.77106190	5.85101000
O	27.66693719	16.28593276	5.93479258
O	27.57099975	26.78864534	5.90537959
O	16.16128258	16.24318490	5.56735740
O	16.12623237	26.89441451	5.51322892
O	19.93343799	16.39423973	5.48974891
O	19.97211795	26.71548386	5.82077499
O	12.53482201	13.42224685	6.31226633
O	12.26544319	23.71989782	6.37769790
O	27.69493507	13.21171109	6.36411095
O	27.50816904	23.82682023	6.42414796
O	16.26998311	13.24783233	6.31005861
O	16.18464688	23.73269926	6.34595244
O	19.87764767	13.38749989	6.40066536
O	20.07396943	23.72773462	6.38318823
O	10.40125547	18.64047676	6.36443428
O	10.49373736	28.92171414	6.40413081
O	25.62449705	18.58919356	6.49904033
O	25.67621677	29.00852243	6.45326620
O	13.96030218	18.53464761	6.33829794
O	14.25291447	29.00702008	6.35007591
O	29.39608209	18.77584108	6.38441609
O	29.57646052	29.19171374	6.32812418
O	17.82964931	18.55673656	6.38079945
O	17.88126768	28.98498332	6.41684766
H	14.41441062	13.86811423	7.74659211
H	14.57399111	14.45761384	11.46160118
H	14.50623814	18.02789514	8.84283768
O	14.26684606	16.08578993	7.56130754
O	14.30051419	14.16859697	8.68074592
C	14.30360179	15.44416899	8.71634488
C	14.49332797	16.15955669	9.96922511
C	14.53144067	15.55133120	11.23613766
C	14.55055149	17.56144475	9.83720399
N	13.03660604	19.42280988	15.43622687
N	15.57970047	22.44431158	17.03671731
N	15.57386196	20.62159927	14.54333182
N	13.28331564	21.12143534	18.06458434
C	20.41250743	24.22924140	14.37840202
C	15.60979825	23.93031330	22.53802140
C	7.89479725	18.30252996	18.13850024
C	18.12957983	23.35962580	14.34886015
C	14.52350782	23.85014799	20.34209038
C	10.34801890	18.64701359	17.95211246
C	18.76914190	25.14801639	12.87586889
C	13.99238932	25.63366398	21.84302983
C	9.44193887	16.77978627	19.23975129
C	14.40616406	18.72214736	13.46437337
C	17.02291617	22.57315592	15.02638985
C	14.33734622	23.08566667	19.09199450
C	11.55062163	19.37107079	17.36851221
C	15.37561585	19.70686067	13.54587033
C	16.67924652	21.36534239	14.38437180
C	13.42472874	22.02136786	19.08461242
C	12.13691500	20.37540003	18.17502538
C	16.48177926	19.87544518	12.60205353
C	17.24047689	20.89053174	13.12489565
C	12.33381572	21.82229277	19.96000244
C	11.54482994	20.81360649	19.40497532
C	13.30567577	18.57043004	14.36819335
C	16.49964372	23.08704011	16.21502721
C	15.34850827	23.28114011	18.07706104
C	12.02958567	18.85596957	16.13905319
C	12.31189537	17.53019355	14.31593703
C	16.83688637	24.34574090	16.80812619
C	16.14669224	24.45698608	17.96239034
C	11.52673302	17.69884724	15.40890860
H	12.27349836	16.78046278	13.49845830
H	17.64043521	25.01199220	16.44999505
H	16.23036503	25.18387835	18.76090860
H	10.62837896	17.07123088	15.63860218
H	16.67670248	19.16395508	11.81829757
H	18.18926791	21.29539191	12.71765345
H	12.23407557	22.37183249	20.87026974
H	10.53475730	20.54653193	19.63544086
H	18.46873710	25.82973202	12.13893280
H	13.41107482	26.58262543	22.02441395
H	9.54521745	15.80639655	19.84189228
H	21.45237404	24.14418347	14.78303449
H	16.32537928	23.53587820	23.27702175
H	6.91445248	18.58342163	17.77938766
H	15.02396594	20.57932034	15.43963760
H	13.99732527	21.03029841	17.30584143
C	21.20783388	25.71677350	12.47813395
H	22.05774925	25.85878962	13.16955923
H	20.99869345	26.72595197	12.14925045
H	21.35594034	25.02154487	11.63609865
C	19.79061276	22.29874126	15.81986429
H	19.16655078	21.43671270	15.91856718
H	19.81265191	22.78706438	16.78356189
H	20.79711979	21.88825804	15.61500199
C	16.31110654	24.55366856	13.02759632
H	15.65898026	23.96403783	13.62783950
H	16.04049826	24.33956369	12.00727612
H	15.98093588	25.58495712	13.20811986
C	11.94255393	17.15770334	19.27264576
H	11.93508616	16.50847885	20.16541147
H	12.50305417	18.11906220	19.50684687
H	12.49832248	16.55179722	18.50384331
C	8.80027774	20.19172001	16.80245263
H	9.64317700	20.76080848	16.46421404
H	8.08270904	20.78411196	17.30570634
H	8.29728870	19.89672580	15.84800622
C	7.04092701	16.39137884	19.61522977
H	6.48395580	17.06635940	20.33150298
H	7.36982275	15.47921898	20.11093445
H	6.29884522	16.03180067	18.90392504
C	12.90504584	25.69165859	19.56179392
H	13.01192025	25.19803429	18.64231514
H	13.20052476	26.72661567	19.41735207
H	11.84501428	25.59270595	19.79256788
C	16.09265375	22.01744219	20.93077512
H	15.30439846	21.29912280	20.86373594
H	16.74320020	21.69467668	21.75680885
H	16.78409414	22.22548798	20.04276155
C	14.84052448	25.78105306	24.16438938
H	14.07343263	26.49771192	24.20712045
H	15.86816806	26.26441202	24.20859112
H	14.66578720	25.11123837	25.02047132
C	20.11805961	25.05967579	13.27699477
C	19.44951774	23.27552236	14.78972773
C	17.73186486	24.36736703	13.41559050
C	13.81048955	25.08054712	20.59364004
C	15.45818371	23.34570455	21.25863757
C	14.84236926	25.05128421	22.81235282
C	10.56441193	17.52298424	18.79127019
C	9.03030299	18.98444166	17.61467677
C	8.12418591	17.19267970	18.97592816
H	14.61493502	15.96226181	13.36281610
H	14.32005011	19.49144793	10.81296173
C	14.42367277	17.86319882	12.25241604
C	14.49571048	16.42285700	12.37224134
C	14.42729110	18.40995166	10.95325768

Ti O H C N 0
6-31G*
****

