%chk=f00016380.chk
%mem=24GB
%nproc=12
#p b3lyp/6-31G*

title

0 1
Ti	2.81187400	0.19704000	1.10336000
Ti	0.90594400	5.44057000	1.10336000
Ti	4.71781400	5.44057000	1.10336000
Ti	0.90594400	2.47241000	1.99114000
Ti	4.71781400	2.47241000	1.99114000
Ti	2.81187400	7.71594000	1.99115000
O	2.81187400	8.81302000	0.37332000
O	0.90594400	3.56949000	0.37332000
O	4.71781400	3.56949000	0.37332000
O	0.90594400	0.60134000	1.26110000
O	4.71781400	0.60134000	1.26110000
O	2.81187400	5.84486000	1.26111000
O	2.81187400	2.06812000	1.83340000
O	0.90594400	7.31164000	1.83340000
O	4.71781400	7.31164000	1.83340000
O	0.90594400	4.34349000	2.72118000
O	4.71781400	4.34349000	2.72118000
O	2.81187400	9.58701000	2.72118000
Ti	6.62374588	0.19704000	1.10336000
Ti	21.87123776	0.19704000	1.10336000
Ti	8.52968588	5.44057000	1.10336000
Ti	23.77717776	5.44057000	1.10336000
Ti	8.52968588	2.47241000	1.99114000
Ti	23.77717776	2.47241000	1.99114000
Ti	6.62374588	7.71594000	1.99115000
Ti	21.87123776	7.71594000	1.99115000
Ti	10.43561588	0.19704000	1.10336000
Ti	25.68310776	0.19704000	1.10336000
Ti	14.24749588	0.19704000	1.10336000
Ti	29.49498776	0.19704000	1.10336000
Ti	18.05936588	0.19704000	1.10336000
Ti	12.34155588	5.44057000	1.10336000
Ti	27.58904776	5.44057000	1.10336000
Ti	16.15343588	5.44057000	1.10336000
Ti	19.96530588	5.44057000	1.10336000
Ti	12.34155588	2.47241000	1.99114000
Ti	27.58904776	2.47241000	1.99114000
Ti	16.15343588	2.47241000	1.99114000
Ti	19.96530588	2.47241000	1.99114000
Ti	10.43561588	7.71594000	1.99115000
Ti	25.68310776	7.71594000	1.99115000
Ti	14.24749588	7.71594000	1.99115000
Ti	29.49498776	7.71594000	1.99115000
Ti	18.05936588	7.71594000	1.99115000
O	6.62374588	8.81302000	0.37332000
O	21.87123776	8.81302000	0.37332000
O	8.52968588	3.56949000	0.37332000
O	23.77717776	3.56949000	0.37332000
O	8.52968588	0.60134000	1.26110000
O	23.77717776	0.60134000	1.26110000
O	6.62374588	5.84486000	1.26111000
O	21.87123776	5.84486000	1.26111000
O	6.62374588	2.06812000	1.83340000
O	21.87123776	2.06812000	1.83340000
O	8.52968588	7.31164000	1.83340000
O	23.77717776	7.31164000	1.83340000
O	8.52968588	4.34349000	2.72118000
O	23.77717776	4.34349000	2.72118000
O	6.62374588	9.58701000	2.72118000
O	21.87123776	9.58701000	2.72118000
O	10.43561588	8.81302000	0.37332000
O	25.68310776	8.81302000	0.37332000
O	14.24749588	8.81302000	0.37332000
O	29.49498776	8.81302000	0.37332000
O	18.05936588	8.81302000	0.37332000
O	12.34155588	3.56949000	0.37332000
O	27.58904776	3.56949000	0.37332000
O	16.15343588	3.56949000	0.37332000
O	19.96530588	3.56949000	0.37332000
O	12.34155588	0.60134000	1.26110000
O	27.58904776	0.60134000	1.26110000
O	16.15343588	0.60134000	1.26110000
O	19.96530588	0.60134000	1.26110000
O	10.43561588	5.84486000	1.26111000
O	25.68310776	5.84486000	1.26111000
O	14.24749588	5.84486000	1.26111000
O	29.49498776	5.84486000	1.26111000
O	18.05936588	5.84486000	1.26111000
O	10.43561588	2.06812000	1.83340000
O	25.68310776	2.06812000	1.83340000
O	14.24749588	2.06812000	1.83340000
O	29.49498776	2.06812000	1.83340000
O	18.05936588	2.06812000	1.83340000
O	12.34155588	7.31164000	1.83340000
O	27.58904776	7.31164000	1.83340000
O	16.15343588	7.31164000	1.83340000
O	19.96530588	7.31164000	1.83340000
O	12.34155588	4.34349000	2.72118000
O	27.58904776	4.34349000	2.72118000
O	16.15343588	4.34349000	2.72118000
O	19.96530588	4.34349000	2.72118000
O	10.43561588	9.58701000	2.72118000
O	25.68310776	9.58701000	2.72118000
O	14.24749588	9.58701000	2.72118000
O	29.49498776	9.58701000	2.72118000
O	18.05936588	9.58701000	2.72118000
Ti	2.81187400	10.68408607	1.10336000
Ti	2.81187400	21.17113214	1.10336000
Ti	0.90594400	15.92761607	1.10336000
Ti	0.90594400	26.41466214	1.10336000
Ti	4.71781400	15.92761607	1.10336000
Ti	4.71781400	26.41466214	1.10336000
Ti	0.90594400	12.95945607	1.99114000
Ti	0.90594400	23.44650214	1.99114000
Ti	4.71781400	12.95945607	1.99114000
Ti	4.71781400	23.44650214	1.99114000
Ti	2.81187400	18.20298607	1.99115000
Ti	2.81187400	28.69003214	1.99115000
O	2.81187400	19.30006607	0.37332000
O	2.81187400	29.78711214	0.37332000
O	0.90594400	14.05653607	0.37332000
O	0.90594400	24.54358214	0.37332000
O	4.71781400	14.05653607	0.37332000
O	4.71781400	24.54358214	0.37332000
O	0.90594400	11.08838607	1.26110000
O	0.90594400	21.57543214	1.26110000
O	4.71781400	11.08838607	1.26110000
O	4.71781400	21.57543214	1.26110000
O	2.81187400	16.33190607	1.26111000
O	2.81187400	26.81895214	1.26111000
O	2.81187400	12.55516607	1.83340000
O	2.81187400	23.04221214	1.83340000
O	0.90594400	17.79868607	1.83340000
O	0.90594400	28.28573214	1.83340000
O	4.71781400	17.79868607	1.83340000
O	4.71781400	28.28573214	1.83340000
O	0.90594400	14.83053607	2.72118000
O	0.90594400	25.31758214	2.72118000
O	4.71781400	14.83053607	2.72118000
O	4.71781400	25.31758214	2.72118000
O	2.81187400	20.07405607	2.72118000
O	2.81187400	30.56110214	2.72118000
Ti	6.62374588	10.68408607	1.10336000
Ti	6.62374588	21.17113214	1.10336000
Ti	21.87123776	10.68408607	1.10336000
Ti	21.87123776	21.17113214	1.10336000
Ti	8.52968588	15.92761607	1.10336000
Ti	8.52968588	26.41466214	1.10336000
Ti	23.77717776	15.92761607	1.10336000
Ti	23.77717776	26.41466214	1.10336000
Ti	8.52968588	12.95945607	1.99114000
Ti	8.52968588	23.44650214	1.99114000
Ti	23.77717776	12.95945607	1.99114000
Ti	23.77717776	23.44650214	1.99114000
Ti	6.62374588	18.20298607	1.99115000
Ti	6.62374588	28.69003214	1.99115000
Ti	21.87123776	18.20298607	1.99115000
Ti	21.87123776	28.69003214	1.99115000
Ti	10.43561588	10.68408607	1.10336000
Ti	10.43561588	21.17113214	1.10336000
Ti	25.68310776	10.68408607	1.10336000
Ti	25.68310776	21.17113214	1.10336000
Ti	14.24749588	10.68408607	1.10336000
Ti	14.24749588	21.17113214	1.10336000
Ti	29.49498776	10.68408607	1.10336000
Ti	29.49498776	21.17113214	1.10336000
Ti	18.05936588	10.68408607	1.10336000
Ti	18.05936588	21.17113214	1.10336000
Ti	12.34155588	15.92761607	1.10336000
Ti	12.34155588	26.41466214	1.10336000
Ti	27.58904776	15.92761607	1.10336000
Ti	27.58904776	26.41466214	1.10336000
Ti	16.15343588	15.92761607	1.10336000
Ti	16.15343588	26.41466214	1.10336000
Ti	19.96530588	15.92761607	1.10336000
Ti	19.96530588	26.41466214	1.10336000
Ti	12.34155588	12.95945607	1.99114000
Ti	12.34155588	23.44650214	1.99114000
Ti	27.58904776	12.95945607	1.99114000
Ti	27.58904776	23.44650214	1.99114000
Ti	16.15343588	12.95945607	1.99114000
Ti	16.15343588	23.44650214	1.99114000
Ti	19.96530588	12.95945607	1.99114000
Ti	19.96530588	23.44650214	1.99114000
Ti	10.43561588	18.20298607	1.99115000
Ti	10.43561588	28.69003214	1.99115000
Ti	25.68310776	18.20298607	1.99115000
Ti	25.68310776	28.69003214	1.99115000
Ti	14.24749588	18.20298607	1.99115000
Ti	14.24749588	28.69003214	1.99115000
Ti	29.49498776	18.20298607	1.99115000
Ti	29.49498776	28.69003214	1.99115000
Ti	18.05936588	18.20298607	1.99115000
Ti	18.05936588	28.69003214	1.99115000
O	6.62374588	19.30006607	0.37332000
O	6.62374588	29.78711214	0.37332000
O	21.87123776	19.30006607	0.37332000
O	21.87123776	29.78711214	0.37332000
O	8.52968588	14.05653607	0.37332000
O	8.52968588	24.54358214	0.37332000
O	23.77717776	14.05653607	0.37332000
O	23.77717776	24.54358214	0.37332000
O	8.52968588	11.08838607	1.26110000
O	8.52968588	21.57543214	1.26110000
O	23.77717776	11.08838607	1.26110000
O	23.77717776	21.57543214	1.26110000
O	6.62374588	16.33190607	1.26111000
O	6.62374588	26.81895214	1.26111000
O	21.87123776	16.33190607	1.26111000
O	21.87123776	26.81895214	1.26111000
O	6.62374588	12.55516607	1.83340000
O	6.62374588	23.04221214	1.83340000
O	21.87123776	12.55516607	1.83340000
O	21.87123776	23.04221214	1.83340000
O	8.52968588	17.79868607	1.83340000
O	8.52968588	28.28573214	1.83340000
O	23.77717776	17.79868607	1.83340000
O	23.77717776	28.28573214	1.83340000
O	8.52968588	14.83053607	2.72118000
O	8.52968588	25.31758214	2.72118000
O	23.77717776	14.83053607	2.72118000
O	23.77717776	25.31758214	2.72118000
O	6.62374588	20.07405607	2.72118000
O	6.62374588	30.56110214	2.72118000
O	21.87123776	20.07405607	2.72118000
O	21.87123776	30.56110214	2.72118000
O	10.43561588	19.30006607	0.37332000
O	10.43561588	29.78711214	0.37332000
O	25.68310776	19.30006607	0.37332000
O	25.68310776	29.78711214	0.37332000
O	14.24749588	19.30006607	0.37332000
O	14.24749588	29.78711214	0.37332000
O	29.49498776	19.30006607	0.37332000
O	29.49498776	29.78711214	0.37332000
O	18.05936588	19.30006607	0.37332000
O	18.05936588	29.78711214	0.37332000
O	12.34155588	14.05653607	0.37332000
O	12.34155588	24.54358214	0.37332000
O	27.58904776	14.05653607	0.37332000
O	27.58904776	24.54358214	0.37332000
O	16.15343588	14.05653607	0.37332000
O	16.15343588	24.54358214	0.37332000
O	19.96530588	14.05653607	0.37332000
O	19.96530588	24.54358214	0.37332000
O	12.34155588	11.08838607	1.26110000
O	12.34155588	21.57543214	1.26110000
O	27.58904776	11.08838607	1.26110000
O	27.58904776	21.57543214	1.26110000
O	16.15343588	11.08838607	1.26110000
O	16.15343588	21.57543214	1.26110000
O	19.96530588	11.08838607	1.26110000
O	19.96530588	21.57543214	1.26110000
O	10.43561588	16.33190607	1.26111000
O	10.43561588	26.81895214	1.26111000
O	25.68310776	16.33190607	1.26111000
O	25.68310776	26.81895214	1.26111000
O	14.24749588	16.33190607	1.26111000
O	14.24749588	26.81895214	1.26111000
O	29.49498776	16.33190607	1.26111000
O	29.49498776	26.81895214	1.26111000
O	18.05936588	16.33190607	1.26111000
O	18.05936588	26.81895214	1.26111000
O	10.43561588	12.55516607	1.83340000
O	10.43561588	23.04221214	1.83340000
O	25.68310776	12.55516607	1.83340000
O	25.68310776	23.04221214	1.83340000
O	14.24749588	12.55516607	1.83340000
O	14.24749588	23.04221214	1.83340000
O	29.49498776	12.55516607	1.83340000
O	29.49498776	23.04221214	1.83340000
O	18.05936588	12.55516607	1.83340000
O	18.05936588	23.04221214	1.83340000
O	12.34155588	17.79868607	1.83340000
O	12.34155588	28.28573214	1.83340000
O	27.58904776	17.79868607	1.83340000
O	27.58904776	28.28573214	1.83340000
O	16.15343588	17.79868607	1.83340000
O	16.15343588	28.28573214	1.83340000
O	19.96530588	17.79868607	1.83340000
O	19.96530588	28.28573214	1.83340000
O	12.34155588	14.83053607	2.72118000
O	12.34155588	25.31758214	2.72118000
O	27.58904776	14.83053607	2.72118000
O	27.58904776	25.31758214	2.72118000
O	16.15343588	14.83053607	2.72118000
O	16.15343588	25.31758214	2.72118000
O	19.96530588	14.83053607	2.72118000
O	19.96530588	25.31758214	2.72118000
O	10.43561588	20.07405607	2.72118000
O	10.43561588	30.56110214	2.72118000
O	25.68310776	20.07405607	2.72118000
O	25.68310776	30.56110214	2.72118000
O	14.24749588	20.07405607	2.72118000
O	14.24749588	30.56110214	2.72118000
O	29.49498776	20.07405607	2.72118000
O	29.49498776	30.56110214	2.72118000
O	18.05936588	20.07405607	2.72118000
O	18.05936588	30.56110214	2.72118000
Ti	6.50614186	9.23119786	4.76174341
Ti	6.43483165	6.25948113	5.54416165
Ti	2.79826847	9.26188683	4.78417809
Ti	0.79691837	4.04332643	4.69515267
Ti	4.59630378	3.99962502	4.84403375
Ti	0.97978296	1.10656467	5.43437434
Ti	4.72849221	1.19406885	5.72106434
Ti	2.62817034	6.29709140	5.58116100
O	6.38659451	7.38610968	3.89075897
O	6.49367800	4.47014153	4.71112445
O	6.60055351	0.53122683	6.08240638
O	6.43388344	8.11148069	6.27230553
O	2.77791732	7.31654084	3.98731726
O	1.01727342	2.07234523	3.88331135
O	4.73799590	2.10456224	4.06758672
O	0.85841862	9.63542348	4.72338601
O	4.64985440	9.63808814	4.84519433
O	2.74978212	4.41739942	4.62413827
O	2.80756219	0.58948813	5.95107120
O	0.80142193	5.79952541	5.85274444
O	4.56974449	5.79368038	5.91205506
O	0.85569790	2.80531216	6.22965424
O	4.47421292	2.95292557	6.56644570
O	2.68266484	8.10281540	6.37911013
Ti	21.82066816	9.26863867	4.66331610
Ti	8.35503640	4.04618420	4.76592443
Ti	23.69184528	3.96637760	4.73298463
Ti	8.47804748	1.12018829	5.65929638
Ti	23.82309423	0.99353264	5.46321430
Ti	21.86028402	6.28817257	5.46008691
Ti	10.43628553	9.24286393	4.73512045
Ti	25.64286059	9.15558314	4.71676739
Ti	14.17369318	9.14699102	4.74778925
Ti	29.40047432	9.19328895	4.67732772
Ti	18.04198126	9.22387672	4.65072675
Ti	12.26195586	4.02396176	4.68165850
Ti	27.55699621	4.00758489	4.72148010
Ti	16.04618784	4.02562983	4.66977130
Ti	19.89214564	3.98965219	4.71831765
Ti	12.31551449	1.14270296	5.57724373
Ti	27.53547030	1.09223570	5.56111859
Ti	16.13931621	1.08482339	5.52153696
Ti	20.03238118	1.07826514	5.52880993
Ti	10.25573006	6.27743965	5.40062525
Ti	25.65773156	6.24969289	5.34459838
Ti	14.18752394	6.26216976	5.41242238
Ti	29.43323161	6.27778199	5.54866140
Ti	18.00087103	6.31032887	5.39691111
O	21.87575848	7.37151384	3.89828577
O	8.48599020	2.09911929	3.95809142
O	23.62793236	2.08042545	3.96946873
O	8.49656903	9.66187946	4.67300478
O	23.78335530	9.54072859	4.98069618
O	21.80856167	4.25319316	4.92018846
O	21.93711534	0.45053494	5.93218756
O	8.31648055	5.86080021	5.78481815
O	23.74210066	5.73697564	5.60137887
O	8.29653789	2.93170126	6.33480406
O	23.93831468	2.90252792	6.29267191
O	21.67358017	8.04435746	6.27165531
O	10.40389851	7.40170458	3.86378937
O	25.51705545	7.34318564	3.88365325
O	14.17729194	7.39371484	3.87482453
O	29.33913384	7.26842229	3.92556785
O	18.06512573	7.41141182	3.90164334
O	12.28568392	2.03044597	3.95173222
O	27.41252510	2.13407256	3.97770655
O	16.10052275	2.12292343	3.94231908
O	19.88510138	2.01952048	3.89870132
O	12.33183545	9.68483291	4.86302695
O	27.49391364	9.56224404	4.58904745
O	16.12783544	9.55154587	4.82277954
O	19.95344445	9.67623393	4.74769636
O	10.30493383	4.32655362	4.84051509
O	25.61983920	4.38028893	4.71335504
O	14.18356436	4.43280945	4.58272410
O	29.39864735	4.47676191	4.70565757
O	17.99226093	4.40390562	4.82765102
O	10.40048690	0.70664355	5.92809562
O	25.67767471	0.46203059	5.99918665
O	14.24366809	0.62302453	5.78369954
O	29.51637100	0.66075625	5.76923127
O	17.98369553	0.59940508	5.69048215
O	12.16055172	5.87276795	5.48507818
O	27.52614842	5.77215331	5.71754259
O	16.08290046	5.88892212	5.69632833
O	19.87162745	5.96979898	5.59725188
O	12.47545056	3.02923730	6.34247260
O	27.74190728	2.94464040	6.27878921
O	16.08754305	2.80074260	6.43663285
O	19.73485697	2.78070596	6.26384840
O	10.49270795	8.04309145	6.34663527
O	25.91269626	8.02525468	6.24935996
O	14.23171608	7.98208959	6.30321651
O	29.43694083	7.99824956	6.36442486
O	18.16740194	8.05189990	6.35840983
Ti	6.62200949	19.72629104	4.76752755
Ti	6.57082987	30.25356470	4.86637997
Ti	6.49980415	16.83906598	5.52058186
Ti	6.71168742	27.28078517	5.54479306
Ti	2.83927650	19.74930741	4.83426637
Ti	2.87044334	30.27922683	4.79984265
Ti	0.92226025	14.34892188	4.66248487
Ti	0.83716381	24.91879144	4.82835553
Ti	4.62060460	14.53117263	4.73050085
Ti	4.71183344	24.97399894	4.81944810
Ti	0.87217227	11.46173068	5.45508749
Ti	0.91633446	22.02264724	5.52627607
Ti	4.70909754	11.66646735	5.47855553
Ti	4.74454369	22.04574567	5.50223059
Ti	2.76009276	16.86791961	5.68388454
Ti	2.91023497	27.30943477	5.38069014
O	6.63088221	17.90886282	3.94281917
O	6.53155642	28.35286534	4.00264488
O	6.52236723	14.92003006	4.95211047
O	6.65562826	25.41205804	4.77444061
O	6.55162546	11.16439567	5.62000321
O	6.56820208	21.57479566	5.76428842
O	6.41567987	18.63185009	6.42335264
O	6.72620447	29.04460936	6.33290072
O	2.64181382	17.93664293	4.07598234
O	3.02203607	28.52163508	3.89018610
O	0.89927042	12.57926703	3.86224867
O	0.90026904	23.07598507	3.99673522
O	4.69648403	12.60981049	3.82130038
O	4.67306438	23.14948294	3.96035451
O	0.95254316	20.18632976	4.78382329
O	0.90151314	30.56893042	4.70994266
O	4.70892191	20.21674060	4.63237593
O	4.74531445	31.00968368	4.77485654
O	2.64645881	15.07434640	4.79919668
O	2.85447689	25.30817988	4.77143163
O	2.72519094	11.02279268	5.78697559
O	2.74073803	21.58702874	5.69781369
O	0.90142316	16.77867368	6.17440357
O	1.02521900	26.75900925	5.68077037
O	4.59400876	16.29158340	5.93358780
O	4.79149118	26.78128679	5.81102796
O	0.74059517	13.24176821	6.40851220
O	0.77369653	23.84939849	6.37592323
O	4.54553285	13.33398396	6.38620818
O	4.79146027	23.92426330	6.47581221
O	2.93852506	18.67699938	6.38500436
O	3.09140517	29.11873030	6.30354215
Ti	21.87250120	19.70890634	4.81676977
Ti	21.84409922	30.23409659	4.80708285
Ti	8.47204896	14.54523209	4.74507627
Ti	8.63302173	25.08663915	4.69397989
Ti	23.76325243	14.45782013	4.73183842
Ti	23.78752918	24.93082140	4.83937827
Ti	8.55149537	11.50590456	5.48310493
Ti	8.50818379	22.16859857	5.54630105
Ti	23.84379958	11.46154624	5.51571289
Ti	23.77097735	21.98567888	5.50121869
Ti	21.80809045	16.75166157	5.46290852
Ti	21.87306141	27.39585289	5.47468863
Ti	10.41487483	19.78122732	4.87135658
Ti	10.40566934	30.33973427	4.79259922
Ti	25.63823350	19.66308605	4.84333902
Ti	25.64021450	30.18406538	4.77981838
Ti	14.20922972	19.59180579	4.77284879
Ti	14.22117837	30.29392667	4.76609547
Ti	29.48120125	19.79485004	4.70519039
Ti	29.43741414	30.28084136	4.92021823
Ti	18.05074968	19.60970013	4.65814757
Ti	18.07865733	30.23063405	4.73004576
Ti	12.43665298	14.52831372	4.78309152
Ti	12.28953017	25.00219078	4.81747923
Ti	27.73068413	14.54504348	4.75082195
Ti	27.59912423	24.96048947	4.73916004
Ti	16.19506415	14.40065680	4.72677634
Ti	16.16810493	24.95473946	4.83261074
Ti	19.96350283	14.46351595	4.86781601
Ti	20.00799085	25.00381978	4.62823046
Ti	12.42193849	11.52873631	5.44434936
Ti	12.34284839	21.97561183	5.48379576
Ti	27.58979126	11.59060734	5.43751106
Ti	27.49124004	22.06537251	5.53487122
Ti	16.27123042	11.51644607	5.49628204
Ti	16.11400937	21.98054005	5.46939115
Ti	19.94912223	11.48148326	5.51044541
Ti	19.98229122	22.13238788	5.49704423
Ti	10.42233602	16.78638321	5.51960529
Ti	10.41852909	27.34719063	5.46214743
Ti	25.65154029	16.68055481	5.56314677
Ti	25.64893759	27.27873204	5.49521216
Ti	14.35863582	16.66095693	5.77334020
Ti	14.21789154	27.41288507	5.50038189
Ti	29.49691627	16.85285060	5.60559827
Ti	29.55871926	27.26839771	5.65347011
Ti	18.11923469	16.74080243	5.52178183
Ti	18.04127932	27.31977676	5.68135512
O	21.91060338	17.78015344	3.88515714
O	21.74477255	28.42823316	3.85947782
O	8.49177530	12.57006740	3.90938295
O	8.54307231	23.07158063	3.95491533
O	23.60954857	12.53428441	3.92576624
O	23.70502148	23.15232834	3.91171626
O	8.52834875	20.20855692	4.72580825
O	8.42641593	30.84479824	4.64704524
O	23.75091326	20.01977008	4.84394432
O	23.74990702	30.57145669	4.73588292
O	21.87681280	14.89194078	4.73402927
O	21.82156307	25.38571401	4.94896750
O	21.85206171	10.92532393	5.89777679
O	21.84332681	21.47158610	5.71601629
O	8.47767756	16.39735406	5.50597237
O	8.57752532	26.82663050	5.79228608
O	23.72752296	16.43316244	5.75525324
O	23.71567493	26.86022012	5.81729300
O	8.47764832	13.32099006	6.40998714
O	8.64581068	23.82186901	6.43216927
O	23.85041906	13.31017475	6.25499443
O	23.78455830	23.73552094	6.33192396
O	21.73744531	18.55934662	6.30802202
O	21.62656798	29.03556828	6.39980846
O	10.37197983	17.88425782	3.92317041
O	10.33294199	28.51529869	3.97630818
O	25.63820877	17.81001156	3.97200476
O	25.90941712	28.21067045	3.92436551
O	14.18806688	17.73559090	4.00375497
O	14.24474651	28.40883642	3.88001162
O	29.76952693	17.83729931	3.99785585
O	29.58387048	28.42920894	3.96352995
O	18.20839043	17.67387742	3.91427514
O	17.99481443	28.40752011	3.97585485
O	12.22521524	12.66255684	3.92607343
O	12.09060449	23.16718333	4.04075741
O	27.69654704	12.59242427	3.94033184
O	27.64555048	23.05688269	3.98376530
O	16.20399364	12.55289599	3.94042442
O	16.19779284	23.05290802	3.93927406
O	19.80556229	12.61436486	3.93237693
O	20.15183526	23.13483128	3.88576617
O	12.29453826	20.11178319	4.72106511
O	12.30650518	30.75157056	4.81606915
O	27.54219584	20.12737170	4.88975316
O	27.48796110	30.60732403	4.73915176
O	16.12471878	20.05370425	4.75697518
O	16.17116026	30.58925433	4.76380808
O	19.92525309	20.21666485	4.65833397
O	19.98702012	30.70851677	4.67634520
O	10.41267947	14.85616770	5.01682954
O	10.44394791	25.56731855	4.56357484
O	25.68440184	14.91137094	4.84021442
O	25.75154206	25.35690247	4.82075053
O	14.33706658	14.80439528	4.81893841
O	14.28093169	25.53316054	4.73778909
O	29.58852334	15.05472652	4.89550908
O	29.50388619	25.37257762	4.76892401
O	18.04982440	14.84505561	4.62758917
O	18.07543968	25.50632662	4.95074983
O	10.47611086	11.07162854	5.65695578
O	10.40264479	21.70891767	5.76597623
O	25.84985260	11.07190442	5.63110723
O	25.60901029	21.50450793	5.79568611
O	14.33803231	11.01609840	5.50192340
O	14.19531652	21.43345916	5.65344178
O	29.41978743	10.91789114	5.79730585
O	29.47068478	21.57510299	5.73090787
O	18.10783061	10.96071807	5.71488127
O	17.94794034	21.54419664	5.70739797
O	12.35216116	16.24461182	5.72061308
O	12.33071568	26.89300663	5.78257529
O	27.56248559	16.33859624	5.68751170
O	27.61501025	26.79391603	5.88801454
O	16.24760968	16.21998693	5.61703142
O	16.10373919	26.77855335	5.82832977
O	19.96252043	16.13431648	5.91867037
O	19.98181070	26.84947529	5.90211491
O	12.59771127	13.30857012	6.32068520
O	12.32796549	23.76900154	6.39493340
O	27.77749663	13.32503236	6.27839085
O	27.66830254	23.89928428	6.37230944
O	16.19749053	13.21067847	6.40925526
O	16.13311471	23.75277863	6.27823434
O	19.97264834	13.18793903	6.29726826
O	19.99998101	23.70937216	6.44261801
O	10.20393770	18.51732033	6.37287472
O	10.29473795	29.05843110	6.39560281
O	26.00004744	18.48957442	6.33750246
O	25.54646977	28.99347068	6.29478622
O	14.21489552	18.54236205	6.38192837
O	14.02195505	29.19854101	6.30475985
O	29.32171362	18.61849530	6.28733143
O	29.57037214	29.00116211	6.45091111
O	17.97696994	18.43552699	6.35789596
O	18.23326129	29.11159641	6.44464541
H	13.36215157	14.00659336	8.16668173
H	14.22057218	14.97784645	11.46671385
H	14.13263049	18.42164543	8.76183888
O	14.35808192	15.95746082	7.53867175
O	13.38130923	14.60154486	8.94804171
C	13.90664830	15.73773408	8.77015233
C	14.07566452	16.60730259	9.95477131
C	14.12776510	16.04778391	11.26677295
C	14.08991213	18.00808010	9.75758628
N	12.96403571	19.77755674	15.47012029
N	16.03206794	21.97228213	16.96713254
N	15.46152045	20.92906741	14.31191918
N	13.63402513	20.59580961	18.22133541
C	20.81004300	23.34454780	13.96042341
C	16.64415107	22.84831302	22.63424509
C	8.01833728	19.31698855	19.05833352
C	18.41797096	23.27590763	14.27695867
C	15.32552115	22.81615850	20.60788611
C	10.22524656	18.96552459	18.13087232
C	19.47359177	25.05375401	12.96746703
C	15.13429959	24.66687891	22.20172625
C	8.91984627	17.00505456	18.87634041
C	14.06956437	19.14206140	13.28369455
C	17.23211741	22.57326984	14.85119722
C	15.14651959	22.17580675	19.31192832
C	11.48492748	19.42811891	17.48807025
C	15.12914488	20.09001963	13.29532191
C	16.56563460	21.65534745	14.03850622
C	14.02288637	21.33531091	19.27539072
C	12.42231350	19.99053184	18.43449219
C	16.13612635	20.33902419	12.26023583
C	17.03111913	21.25156235	12.74035629
C	13.03632594	21.28815179	20.32304925
C	12.06690484	20.47164329	19.77702664
C	13.01995431	19.10602857	14.22812565
C	16.83480895	22.81279837	16.20600812
C	15.90328794	22.62581632	18.20257716
C	11.86261958	19.22240114	16.11654074
C	11.89312905	18.17530447	14.12262586
C	17.18586619	23.99749804	16.97937354
C	16.69183222	23.88199377	18.22198832
C	11.09304799	18.41266923	15.21804759
H	11.63134227	17.52821911	13.17938844
H	17.74606810	24.85367880	16.55221158
H	16.57956678	24.61198336	19.00556089
H	10.20426687	17.78812435	15.39238347
H	16.10036202	19.82879392	11.25850660
H	17.87561176	21.72741361	12.21452712
H	13.08167380	21.74668386	21.30137696
H	11.13932386	20.30512410	20.34170936
H	19.43595533	26.17646719	12.63462696
H	14.77312792	25.62463835	22.57498386
H	8.83708862	15.96783061	18.94021005
H	21.79573991	22.92939754	14.15061848
H	17.46166127	22.31192263	23.22144412
H	7.20843355	20.03999943	19.37374010
H	14.83644348	21.15379757	15.08151804
H	14.10881700	20.59330817	17.33152071
C	21.97569206	25.22344861	12.90214359
H	22.78914245	24.50476607	12.47084478
H	22.33134581	25.73581844	13.77725925
H	21.82775435	26.05651541	12.13874541
C	19.89226584	21.44777223	15.24292872
H	19.63899278	20.58466885	14.61708007
H	19.21337625	21.44995351	16.10204145
H	20.96129167	21.33976333	15.58189461
C	17.02042637	25.18418922	13.34071164
H	16.95053062	26.24406642	13.01860249
H	16.52710318	25.16255494	14.36359620
H	16.35810329	24.64349404	12.65501861
C	11.17965507	16.59548204	18.06146914
H	11.08526886	15.73257264	18.73845705
H	12.18984034	16.99016491	18.35164398
H	11.11744644	16.40173043	17.00170839
C	9.26403608	21.29728261	18.24390507
H	9.71771885	21.54243021	17.23973491
H	9.95482645	21.75386981	18.95661172
H	8.27796839	21.78449717	18.30413838
C	6.73111275	17.29135565	19.90280278
H	6.82418192	17.09986720	20.98005539
H	6.48799090	16.35857468	19.46399895
H	5.81936362	17.89432609	19.89720687
C	13.72194109	24.70130843	20.13028655
H	12.87831351	24.02003472	19.94369333
H	14.22402317	24.94807512	19.12906516
H	13.49136670	25.69808928	20.59927886
C	17.23883567	21.10247103	20.95163083
H	18.23388114	21.38498999	20.64836693
H	16.74540387	20.47609749	20.20077956
H	17.47839096	20.52383500	21.81059020
C	16.64228362	24.86107174	24.22364841
H	15.80888058	25.41289265	24.78634308
H	17.25077926	25.69980209	23.82168767
H	17.32394890	24.18322054	24.74600184
C	20.71358704	24.54168343	13.24075095
C	19.69083135	22.71839085	14.51043391
C	18.29570168	24.50940028	13.50662149
C	14.73850201	23.99929034	21.03150526
C	16.36188919	22.27836715	21.40596178
C	16.09290905	24.04962140	23.03542892
C	10.10153772	17.56457210	18.41243885
C	9.14993735	19.84565471	18.43758967
C	7.84827410	17.90632314	19.18002001
H	14.04901000	16.58458102	13.39515015
H	14.01554380	19.96819149	10.83169720
C	14.00546037	18.31056695	12.09423622
C	14.12563360	16.90693846	12.33346557
C	14.06445056	18.88227193	10.84832211

Ti O H C N 0
6-31G*
****

