%chk=f00013820.chk
%mem=24GB
%nproc=12
#p b3lyp/6-31G*

title

0 1
Ti	2.81187400	0.19704000	1.10336000
Ti	0.90594400	5.44057000	1.10336000
Ti	4.71781400	5.44057000	1.10336000
Ti	0.90594400	2.47241000	1.99114000
Ti	4.71781400	2.47241000	1.99114000
Ti	2.81187400	7.71594000	1.99115000
O	2.81187400	8.81302000	0.37332000
O	0.90594400	3.56949000	0.37332000
O	4.71781400	3.56949000	0.37332000
O	0.90594400	0.60134000	1.26110000
O	4.71781400	0.60134000	1.26110000
O	2.81187400	5.84486000	1.26111000
O	2.81187400	2.06812000	1.83340000
O	0.90594400	7.31164000	1.83340000
O	4.71781400	7.31164000	1.83340000
O	0.90594400	4.34349000	2.72118000
O	4.71781400	4.34349000	2.72118000
O	2.81187400	9.58701000	2.72118000
Ti	6.62374588	0.19704000	1.10336000
Ti	21.87123776	0.19704000	1.10336000
Ti	8.52968588	5.44057000	1.10336000
Ti	23.77717776	5.44057000	1.10336000
Ti	8.52968588	2.47241000	1.99114000
Ti	23.77717776	2.47241000	1.99114000
Ti	6.62374588	7.71594000	1.99115000
Ti	21.87123776	7.71594000	1.99115000
Ti	10.43561588	0.19704000	1.10336000
Ti	25.68310776	0.19704000	1.10336000
Ti	14.24749588	0.19704000	1.10336000
Ti	29.49498776	0.19704000	1.10336000
Ti	18.05936588	0.19704000	1.10336000
Ti	12.34155588	5.44057000	1.10336000
Ti	27.58904776	5.44057000	1.10336000
Ti	16.15343588	5.44057000	1.10336000
Ti	19.96530588	5.44057000	1.10336000
Ti	12.34155588	2.47241000	1.99114000
Ti	27.58904776	2.47241000	1.99114000
Ti	16.15343588	2.47241000	1.99114000
Ti	19.96530588	2.47241000	1.99114000
Ti	10.43561588	7.71594000	1.99115000
Ti	25.68310776	7.71594000	1.99115000
Ti	14.24749588	7.71594000	1.99115000
Ti	29.49498776	7.71594000	1.99115000
Ti	18.05936588	7.71594000	1.99115000
O	6.62374588	8.81302000	0.37332000
O	21.87123776	8.81302000	0.37332000
O	8.52968588	3.56949000	0.37332000
O	23.77717776	3.56949000	0.37332000
O	8.52968588	0.60134000	1.26110000
O	23.77717776	0.60134000	1.26110000
O	6.62374588	5.84486000	1.26111000
O	21.87123776	5.84486000	1.26111000
O	6.62374588	2.06812000	1.83340000
O	21.87123776	2.06812000	1.83340000
O	8.52968588	7.31164000	1.83340000
O	23.77717776	7.31164000	1.83340000
O	8.52968588	4.34349000	2.72118000
O	23.77717776	4.34349000	2.72118000
O	6.62374588	9.58701000	2.72118000
O	21.87123776	9.58701000	2.72118000
O	10.43561588	8.81302000	0.37332000
O	25.68310776	8.81302000	0.37332000
O	14.24749588	8.81302000	0.37332000
O	29.49498776	8.81302000	0.37332000
O	18.05936588	8.81302000	0.37332000
O	12.34155588	3.56949000	0.37332000
O	27.58904776	3.56949000	0.37332000
O	16.15343588	3.56949000	0.37332000
O	19.96530588	3.56949000	0.37332000
O	12.34155588	0.60134000	1.26110000
O	27.58904776	0.60134000	1.26110000
O	16.15343588	0.60134000	1.26110000
O	19.96530588	0.60134000	1.26110000
O	10.43561588	5.84486000	1.26111000
O	25.68310776	5.84486000	1.26111000
O	14.24749588	5.84486000	1.26111000
O	29.49498776	5.84486000	1.26111000
O	18.05936588	5.84486000	1.26111000
O	10.43561588	2.06812000	1.83340000
O	25.68310776	2.06812000	1.83340000
O	14.24749588	2.06812000	1.83340000
O	29.49498776	2.06812000	1.83340000
O	18.05936588	2.06812000	1.83340000
O	12.34155588	7.31164000	1.83340000
O	27.58904776	7.31164000	1.83340000
O	16.15343588	7.31164000	1.83340000
O	19.96530588	7.31164000	1.83340000
O	12.34155588	4.34349000	2.72118000
O	27.58904776	4.34349000	2.72118000
O	16.15343588	4.34349000	2.72118000
O	19.96530588	4.34349000	2.72118000
O	10.43561588	9.58701000	2.72118000
O	25.68310776	9.58701000	2.72118000
O	14.24749588	9.58701000	2.72118000
O	29.49498776	9.58701000	2.72118000
O	18.05936588	9.58701000	2.72118000
Ti	2.81187400	10.68408607	1.10336000
Ti	2.81187400	21.17113214	1.10336000
Ti	0.90594400	15.92761607	1.10336000
Ti	0.90594400	26.41466214	1.10336000
Ti	4.71781400	15.92761607	1.10336000
Ti	4.71781400	26.41466214	1.10336000
Ti	0.90594400	12.95945607	1.99114000
Ti	0.90594400	23.44650214	1.99114000
Ti	4.71781400	12.95945607	1.99114000
Ti	4.71781400	23.44650214	1.99114000
Ti	2.81187400	18.20298607	1.99115000
Ti	2.81187400	28.69003214	1.99115000
O	2.81187400	19.30006607	0.37332000
O	2.81187400	29.78711214	0.37332000
O	0.90594400	14.05653607	0.37332000
O	0.90594400	24.54358214	0.37332000
O	4.71781400	14.05653607	0.37332000
O	4.71781400	24.54358214	0.37332000
O	0.90594400	11.08838607	1.26110000
O	0.90594400	21.57543214	1.26110000
O	4.71781400	11.08838607	1.26110000
O	4.71781400	21.57543214	1.26110000
O	2.81187400	16.33190607	1.26111000
O	2.81187400	26.81895214	1.26111000
O	2.81187400	12.55516607	1.83340000
O	2.81187400	23.04221214	1.83340000
O	0.90594400	17.79868607	1.83340000
O	0.90594400	28.28573214	1.83340000
O	4.71781400	17.79868607	1.83340000
O	4.71781400	28.28573214	1.83340000
O	0.90594400	14.83053607	2.72118000
O	0.90594400	25.31758214	2.72118000
O	4.71781400	14.83053607	2.72118000
O	4.71781400	25.31758214	2.72118000
O	2.81187400	20.07405607	2.72118000
O	2.81187400	30.56110214	2.72118000
Ti	6.62374588	10.68408607	1.10336000
Ti	6.62374588	21.17113214	1.10336000
Ti	21.87123776	10.68408607	1.10336000
Ti	21.87123776	21.17113214	1.10336000
Ti	8.52968588	15.92761607	1.10336000
Ti	8.52968588	26.41466214	1.10336000
Ti	23.77717776	15.92761607	1.10336000
Ti	23.77717776	26.41466214	1.10336000
Ti	8.52968588	12.95945607	1.99114000
Ti	8.52968588	23.44650214	1.99114000
Ti	23.77717776	12.95945607	1.99114000
Ti	23.77717776	23.44650214	1.99114000
Ti	6.62374588	18.20298607	1.99115000
Ti	6.62374588	28.69003214	1.99115000
Ti	21.87123776	18.20298607	1.99115000
Ti	21.87123776	28.69003214	1.99115000
Ti	10.43561588	10.68408607	1.10336000
Ti	10.43561588	21.17113214	1.10336000
Ti	25.68310776	10.68408607	1.10336000
Ti	25.68310776	21.17113214	1.10336000
Ti	14.24749588	10.68408607	1.10336000
Ti	14.24749588	21.17113214	1.10336000
Ti	29.49498776	10.68408607	1.10336000
Ti	29.49498776	21.17113214	1.10336000
Ti	18.05936588	10.68408607	1.10336000
Ti	18.05936588	21.17113214	1.10336000
Ti	12.34155588	15.92761607	1.10336000
Ti	12.34155588	26.41466214	1.10336000
Ti	27.58904776	15.92761607	1.10336000
Ti	27.58904776	26.41466214	1.10336000
Ti	16.15343588	15.92761607	1.10336000
Ti	16.15343588	26.41466214	1.10336000
Ti	19.96530588	15.92761607	1.10336000
Ti	19.96530588	26.41466214	1.10336000
Ti	12.34155588	12.95945607	1.99114000
Ti	12.34155588	23.44650214	1.99114000
Ti	27.58904776	12.95945607	1.99114000
Ti	27.58904776	23.44650214	1.99114000
Ti	16.15343588	12.95945607	1.99114000
Ti	16.15343588	23.44650214	1.99114000
Ti	19.96530588	12.95945607	1.99114000
Ti	19.96530588	23.44650214	1.99114000
Ti	10.43561588	18.20298607	1.99115000
Ti	10.43561588	28.69003214	1.99115000
Ti	25.68310776	18.20298607	1.99115000
Ti	25.68310776	28.69003214	1.99115000
Ti	14.24749588	18.20298607	1.99115000
Ti	14.24749588	28.69003214	1.99115000
Ti	29.49498776	18.20298607	1.99115000
Ti	29.49498776	28.69003214	1.99115000
Ti	18.05936588	18.20298607	1.99115000
Ti	18.05936588	28.69003214	1.99115000
O	6.62374588	19.30006607	0.37332000
O	6.62374588	29.78711214	0.37332000
O	21.87123776	19.30006607	0.37332000
O	21.87123776	29.78711214	0.37332000
O	8.52968588	14.05653607	0.37332000
O	8.52968588	24.54358214	0.37332000
O	23.77717776	14.05653607	0.37332000
O	23.77717776	24.54358214	0.37332000
O	8.52968588	11.08838607	1.26110000
O	8.52968588	21.57543214	1.26110000
O	23.77717776	11.08838607	1.26110000
O	23.77717776	21.57543214	1.26110000
O	6.62374588	16.33190607	1.26111000
O	6.62374588	26.81895214	1.26111000
O	21.87123776	16.33190607	1.26111000
O	21.87123776	26.81895214	1.26111000
O	6.62374588	12.55516607	1.83340000
O	6.62374588	23.04221214	1.83340000
O	21.87123776	12.55516607	1.83340000
O	21.87123776	23.04221214	1.83340000
O	8.52968588	17.79868607	1.83340000
O	8.52968588	28.28573214	1.83340000
O	23.77717776	17.79868607	1.83340000
O	23.77717776	28.28573214	1.83340000
O	8.52968588	14.83053607	2.72118000
O	8.52968588	25.31758214	2.72118000
O	23.77717776	14.83053607	2.72118000
O	23.77717776	25.31758214	2.72118000
O	6.62374588	20.07405607	2.72118000
O	6.62374588	30.56110214	2.72118000
O	21.87123776	20.07405607	2.72118000
O	21.87123776	30.56110214	2.72118000
O	10.43561588	19.30006607	0.37332000
O	10.43561588	29.78711214	0.37332000
O	25.68310776	19.30006607	0.37332000
O	25.68310776	29.78711214	0.37332000
O	14.24749588	19.30006607	0.37332000
O	14.24749588	29.78711214	0.37332000
O	29.49498776	19.30006607	0.37332000
O	29.49498776	29.78711214	0.37332000
O	18.05936588	19.30006607	0.37332000
O	18.05936588	29.78711214	0.37332000
O	12.34155588	14.05653607	0.37332000
O	12.34155588	24.54358214	0.37332000
O	27.58904776	14.05653607	0.37332000
O	27.58904776	24.54358214	0.37332000
O	16.15343588	14.05653607	0.37332000
O	16.15343588	24.54358214	0.37332000
O	19.96530588	14.05653607	0.37332000
O	19.96530588	24.54358214	0.37332000
O	12.34155588	11.08838607	1.26110000
O	12.34155588	21.57543214	1.26110000
O	27.58904776	11.08838607	1.26110000
O	27.58904776	21.57543214	1.26110000
O	16.15343588	11.08838607	1.26110000
O	16.15343588	21.57543214	1.26110000
O	19.96530588	11.08838607	1.26110000
O	19.96530588	21.57543214	1.26110000
O	10.43561588	16.33190607	1.26111000
O	10.43561588	26.81895214	1.26111000
O	25.68310776	16.33190607	1.26111000
O	25.68310776	26.81895214	1.26111000
O	14.24749588	16.33190607	1.26111000
O	14.24749588	26.81895214	1.26111000
O	29.49498776	16.33190607	1.26111000
O	29.49498776	26.81895214	1.26111000
O	18.05936588	16.33190607	1.26111000
O	18.05936588	26.81895214	1.26111000
O	10.43561588	12.55516607	1.83340000
O	10.43561588	23.04221214	1.83340000
O	25.68310776	12.55516607	1.83340000
O	25.68310776	23.04221214	1.83340000
O	14.24749588	12.55516607	1.83340000
O	14.24749588	23.04221214	1.83340000
O	29.49498776	12.55516607	1.83340000
O	29.49498776	23.04221214	1.83340000
O	18.05936588	12.55516607	1.83340000
O	18.05936588	23.04221214	1.83340000
O	12.34155588	17.79868607	1.83340000
O	12.34155588	28.28573214	1.83340000
O	27.58904776	17.79868607	1.83340000
O	27.58904776	28.28573214	1.83340000
O	16.15343588	17.79868607	1.83340000
O	16.15343588	28.28573214	1.83340000
O	19.96530588	17.79868607	1.83340000
O	19.96530588	28.28573214	1.83340000
O	12.34155588	14.83053607	2.72118000
O	12.34155588	25.31758214	2.72118000
O	27.58904776	14.83053607	2.72118000
O	27.58904776	25.31758214	2.72118000
O	16.15343588	14.83053607	2.72118000
O	16.15343588	25.31758214	2.72118000
O	19.96530588	14.83053607	2.72118000
O	19.96530588	25.31758214	2.72118000
O	10.43561588	20.07405607	2.72118000
O	10.43561588	30.56110214	2.72118000
O	25.68310776	20.07405607	2.72118000
O	25.68310776	30.56110214	2.72118000
O	14.24749588	20.07405607	2.72118000
O	14.24749588	30.56110214	2.72118000
O	29.49498776	20.07405607	2.72118000
O	29.49498776	30.56110214	2.72118000
O	18.05936588	20.07405607	2.72118000
O	18.05936588	30.56110214	2.72118000
Ti	6.58627286	9.14679260	4.93074045
Ti	6.65704431	6.21994532	5.48246541
Ti	2.75576058	9.14758355	4.85872410
Ti	0.89801725	3.99266509	4.65897063
Ti	4.79979191	3.95768467	4.69232178
Ti	1.02804541	1.11487516	5.56211649
Ti	4.89071903	1.05557323	5.54357710
Ti	2.82883050	6.17189601	5.49494918
O	6.72025238	7.27393924	3.87630633
O	6.70570443	4.34141864	4.84194616
O	6.72530467	0.59499114	5.73771721
O	6.50660314	7.94715564	6.44758541
O	2.73867932	7.36796712	3.97604586
O	0.97359048	2.03236085	3.92339042
O	4.92967702	2.10349533	3.94435406
O	0.85675568	9.53660871	4.89218681
O	4.60032881	9.53369146	4.96429022
O	2.83900923	4.21890326	4.86830374
O	2.91513379	0.60538774	5.76737463
O	0.94838020	5.70400904	5.79365174
O	4.72486294	5.80042961	5.81169545
O	0.75525724	2.79932495	6.37875050
O	4.79023862	2.77827100	6.48962561
O	2.58296033	7.89537228	6.30355668
Ti	21.89632629	9.29558334	4.73950378
Ti	8.58819579	3.94422813	4.66544905
Ti	23.78900611	3.93839609	4.69102986
Ti	8.66747969	1.03154990	5.44302836
Ti	23.95509547	1.03783055	5.56507924
Ti	21.94347151	6.38375954	5.46692171
Ti	10.38585034	9.20037076	4.76593780
Ti	25.73286913	9.15914100	4.68898356
Ti	14.21354830	9.17881385	4.84440654
Ti	29.46221543	9.24748367	4.72516198
Ti	18.15367534	9.19679255	4.70119814
Ti	12.26194517	3.97172206	4.76799331
Ti	27.56143553	3.91205381	4.81976354
Ti	16.16447419	3.87851609	4.69333554
Ti	20.06770839	3.94527596	4.92642386
Ti	12.40919875	0.96264679	5.34952822
Ti	27.60303003	1.00778531	5.55640669
Ti	16.27923279	1.03243008	5.51986654
Ti	20.14328743	0.90847635	5.51725164
Ti	10.55407379	6.28266205	5.47093269
Ti	25.74341534	6.23555183	5.51842873
Ti	14.21200550	6.23043775	5.51659058
Ti	29.58586796	6.34077960	5.55868184
Ti	18.09149011	6.18909163	5.42533081
O	22.08119954	7.42402982	3.99519037
O	8.56846219	2.06102100	3.86347210
O	23.86297896	2.11280544	3.86670883
O	8.53363220	9.64897292	4.65967194
O	23.87182724	9.59167542	4.87929121
O	21.95580200	4.39305560	4.77117942
O	22.01503080	0.37804821	5.82265679
O	8.59501831	5.83297105	5.61548675
O	23.82234111	5.81425468	5.83121021
O	8.62467828	2.73101534	6.29128616
O	23.88796914	2.79074178	6.25037860
O	21.67331485	8.02629890	6.39187631
O	10.45950485	7.29181575	3.88653846
O	25.68857285	7.29432577	3.92462339
O	14.21814791	7.29852209	3.99728660
O	29.60344090	7.23096338	3.90476331
O	18.07251610	7.30118445	3.94166989
O	12.38969225	2.14152983	3.93637421
O	27.56602820	2.12037101	3.98916317
O	16.26638846	2.01416326	3.93436260
O	20.04428294	2.05534187	3.97809938
O	12.34444725	9.61863639	4.87436218
O	27.58414437	9.68222797	4.79012964
O	16.18355032	9.51418241	5.02853285
O	20.00141151	9.69339776	4.68480108
O	10.42342409	4.41195086	4.65459376
O	25.69963732	4.35669056	4.85964418
O	14.24869337	4.35347061	4.76906813
O	29.52385914	4.38744708	4.65235723
O	18.14411490	4.27363999	4.93252385
O	10.54704325	0.49216158	5.71814882
O	25.80071739	0.41139691	5.90338106
O	14.28446194	0.58332025	5.66156715
O	29.51470348	0.49530336	5.76698709
O	18.15166992	0.57516849	5.68606973
O	12.38609139	5.66016867	5.85574074
O	27.59762510	5.73910090	5.71338029
O	16.15565443	5.84611363	5.54866785
O	20.04718817	5.78066133	5.68359257
O	12.24743536	2.72301027	6.36135626
O	27.68955010	2.71332072	6.43845453
O	16.24274756	2.86964759	6.37108864
O	20.26601810	2.58622574	6.49646746
O	10.29136507	8.03841076	6.40467114
O	25.62443402	8.00339803	6.39363502
O	14.10664775	7.88778119	6.44946936
O	29.39055864	8.04495167	6.42118008
O	18.19587586	7.84276071	6.37224529
Ti	6.55070205	19.72576832	4.73537318
Ti	6.70082041	30.18514613	4.67122153
Ti	6.63057318	16.73145043	5.52496427
Ti	6.58265033	27.27044947	5.57192838
Ti	2.70230022	19.70014950	4.84321502
Ti	2.78990026	30.30085805	4.76823444
Ti	0.86633243	14.51895550	4.70212203
Ti	0.95352683	25.00920101	4.62580267
Ti	4.74740693	14.45145171	4.78332177
Ti	4.74920389	24.87674278	4.81072533
Ti	0.91466513	11.56444472	5.47112218
Ti	0.74010098	22.06529643	5.49897980
Ti	4.73447531	11.46292707	5.57197785
Ti	4.63917041	21.96846821	5.67170965
Ti	2.85293311	16.76359180	5.48150088
Ti	2.87884979	27.34788531	5.52044361
O	6.60253994	17.78466888	4.00326810
O	6.82321527	28.24995056	3.91697650
O	6.68487608	14.84766338	4.68156054
O	6.63874942	25.51094821	4.80936909
O	6.64308219	10.95597314	5.76761780
O	6.57647691	21.43352831	5.94857244
O	6.46828092	18.41651982	6.46608423
O	6.67458546	29.11843855	6.30246553
O	2.97571942	17.88913177	3.96738116
O	2.89969411	28.39423898	3.93921282
O	0.91732965	12.62426679	3.91529729
O	0.92772043	23.14436456	3.97857846
O	4.70241795	12.51863628	3.94833743
O	4.62968590	23.08482691	3.99093701
O	0.87795630	20.25621698	4.64666439
O	0.96552677	30.72924146	4.82988405
O	4.64233202	20.11592741	4.94443288
O	4.71134942	30.62396314	4.88439760
O	2.77668171	14.82456820	4.85341061
O	2.82727816	25.48130675	4.78451943
O	2.77040535	11.05768159	5.73960166
O	2.66082380	21.55985566	5.71843226
O	0.91004224	16.26884137	5.71454586
O	0.90539550	26.90231109	5.64174489
O	4.78936763	16.20427878	5.78601952
O	4.73583257	26.82303036	5.82559655
O	0.85691189	13.24411018	6.32994789
O	0.89492355	23.82755134	6.38974300
O	4.75671595	13.15820302	6.38161077
O	4.77487556	23.72682418	6.40587448
O	2.52914605	18.54693883	6.35280347
O	2.95189959	29.04532398	6.33090163
Ti	21.78883194	19.71049018	4.88121281
Ti	21.96096203	30.14788359	4.68636096
Ti	8.55570926	14.48061496	4.84069065
Ti	8.50160484	24.90845457	4.83188816
Ti	23.88484552	14.25567927	4.68184024
Ti	23.76973176	25.05282323	4.80988834
Ti	8.55798183	11.52000076	5.38334108
Ti	8.46984949	21.95792794	5.44212679
Ti	23.91133106	11.42262968	5.51062697
Ti	23.74927844	22.15651907	5.60986038
Ti	22.03322292	16.80637517	5.62551960
Ti	21.81975145	27.26320089	5.54492832
Ti	10.40831606	19.68515693	4.80002229
Ti	10.52991019	30.08196243	4.75677927
Ti	25.61760464	19.80507586	4.81155345
Ti	25.85071779	30.12897348	4.62843278
Ti	14.21669840	19.70564282	4.72189173
Ti	14.27321015	30.15078282	4.79211425
Ti	29.32468161	19.79122183	4.73234075
Ti	29.57987328	30.24632647	4.67989926
Ti	18.11031901	19.71198391	4.76731888
Ti	18.09728180	30.22921829	4.72022522
Ti	12.34803629	14.49587003	4.73400974
Ti	12.36789749	24.95597507	4.72220209
Ti	27.55807005	14.47835568	4.92964207
Ti	27.56408113	24.98241335	4.73991517
Ti	16.23779828	14.54197250	4.68034722
Ti	16.29042833	24.96114213	4.73739323
Ti	20.02904275	14.54902653	4.75952875
Ti	19.99647958	24.92713876	4.85842892
Ti	12.38649259	11.58763188	5.52763683
Ti	12.38235704	22.13411066	5.48453202
Ti	27.63706357	11.53874483	5.46669606
Ti	27.54085910	22.09115388	5.47389560
Ti	16.16447912	11.53379240	5.60572895
Ti	16.07106776	22.03781665	5.54935391
Ti	19.98230070	11.60614430	5.52306534
Ti	19.92780153	22.06073834	5.52994735
Ti	10.39700441	16.75521980	5.48915581
Ti	10.56253676	27.14012451	5.56311413
Ti	25.72261963	16.88895596	5.75760650
Ti	25.73717479	27.23992034	5.52661243
Ti	14.27416454	16.81453704	5.73757433
Ti	14.22697448	27.22736662	5.43430519
Ti	29.49219635	16.86868155	5.55872942
Ti	29.50350135	27.29807808	5.50994655
Ti	18.15482065	16.77323447	5.50779605
Ti	18.10901372	27.30265355	5.46952480
O	21.86707663	17.77170637	4.03268514
O	21.75261588	28.24054811	3.93078692
O	8.54645817	12.65921425	3.95247881
O	8.61268405	22.89750863	3.83434137
O	23.85166908	12.32625064	3.91076254
O	23.49348894	23.23489125	4.07943796
O	8.51823399	20.09179689	4.72473113
O	8.59621124	30.57224404	4.88249799
O	23.69671346	20.24578540	4.70651234
O	23.88959438	30.52637990	4.63882084
O	22.00648524	14.92634091	5.06415227
O	21.79163769	25.45798889	4.81689800
O	22.08121692	10.96865729	5.89753140
O	21.86829620	21.57361587	5.77041848
O	8.52244327	16.17352807	5.89995196
O	8.60532238	26.74348694	5.88676979
O	23.83600602	16.74954385	6.32730170
O	23.89031237	26.84253749	5.65126548
O	8.59268887	13.28876916	6.35854573
O	8.30297230	23.67502356	6.39956635
O	23.93915580	13.07534260	6.36183690
O	23.90953655	23.93754228	6.45097177
O	21.61514945	18.53453090	6.48796450
O	22.01114120	29.05487625	6.43085264
O	10.57501691	17.85871163	3.95626788
O	10.73893698	28.23308650	4.00043188
O	25.74122698	17.92589965	4.02297573
O	25.69626015	28.30153973	3.89545824
O	14.07689504	17.82950531	3.99053192
O	13.97610498	28.34995588	3.94202059
O	29.45474490	17.83942123	3.90394181
O	29.37254983	28.34063094	3.96999914
O	18.30997553	17.86870911	3.93929523
O	18.16208342	28.36550180	3.90909515
O	12.22626066	12.58176095	3.91961417
O	12.35896416	23.14770625	3.87389644
O	27.64057473	12.69323710	3.96339016
O	27.53953819	23.08875563	3.88026697
O	16.11771955	12.55910618	3.96995350
O	16.01376173	23.16946005	3.96940294
O	20.10613747	12.63579589	4.00097209
O	19.94848631	23.14344731	3.95969766
O	12.31162914	20.20137850	4.91271409
O	12.41344045	30.53726054	5.02167265
O	27.55257978	20.29382531	4.71718177
O	27.67530913	30.63728739	4.55595442
O	16.10124024	20.02092946	4.73972202
O	16.20685227	30.58402188	4.78793020
O	19.95720336	20.19668560	4.75832848
O	20.03862349	30.41532804	5.05457041
O	10.42738151	14.85977952	4.71248384
O	10.39462841	25.32574320	4.71569266
O	25.63873059	15.06745346	4.89014427
O	25.70640312	25.39255580	4.63021521
O	14.35254591	14.88917408	4.93050293
O	14.33863119	25.36729146	4.74615848
O	29.49009635	14.96073475	4.66280527
O	29.61383398	25.41319314	4.76962984
O	18.07780997	14.97671023	4.78394879
O	18.12206664	25.47933548	4.77232193
O	10.44169106	11.05242854	5.93079554
O	10.45893745	21.58445045	5.59748526
O	25.78696190	10.86863548	5.77077679
O	25.63307462	21.55804016	5.80356993
O	14.26507127	11.04161048	5.76036273
O	14.25219739	21.49495281	5.86776253
O	29.55534972	11.16175601	5.69008142
O	29.40164089	21.62636101	5.81058278
O	18.04646769	11.06596383	5.79151834
O	17.99369274	21.55639434	5.75739534
O	12.34921903	16.26954440	5.68602322
O	12.37503323	26.62465075	5.90546889
O	27.59123077	16.40000309	5.85777544
O	27.62324262	26.70370485	5.74797305
O	16.14750349	16.46963978	5.34170948
O	16.16880781	26.76841281	5.61398070
O	20.04658344	16.32040693	5.78641853
O	19.95602014	26.86427344	5.90386543
O	12.53513065	13.27069769	6.32703592
O	12.34529048	23.85439103	6.35385152
O	27.64303898	13.28806317	6.39930990
O	27.32238513	23.85730297	6.25837058
O	16.28902346	13.38384969	6.33274252
O	16.06034547	23.75049651	6.34337229
O	19.65371968	13.28358624	6.38611616
O	19.96760874	23.84709634	6.42997654
O	10.21397970	18.51308850	6.28603340
O	10.52542844	28.88804246	6.39760566
O	25.98811972	18.75812861	6.45448867
O	26.05153600	29.10730946	6.34909786
O	14.13121240	18.60261898	6.41576760
O	14.36344182	28.93072085	6.32386748
O	29.47973648	18.54990492	6.39754503
O	29.59463383	29.10821403	6.31087346
O	18.15524580	18.58148478	6.35805714
O	17.93326371	29.06163930	6.38990457
H	15.58187208	14.48239059	7.75230338
H	16.58050189	15.96184903	10.74343615
H	13.26951511	18.06811786	8.95112604
O	14.29560966	16.17745284	7.52967539
O	15.73307931	15.00208299	8.57987718
C	15.03048921	16.03386316	8.59688969
C	14.97983771	16.93796558	9.72212690
C	15.91983137	16.79671932	10.76870937
C	13.99584103	17.90665411	9.77393731
N	13.14741760	19.73856777	15.26918987
N	14.94164393	22.94105669	16.93053483
N	15.52466903	21.12344465	14.69457372
N	12.63734010	21.22527220	17.73310790
C	20.48688807	23.95865026	15.68945708
C	12.78910656	24.56787100	22.37733564
C	8.34986409	17.07212146	17.56513194
C	18.13072059	23.82126935	15.19812187
C	12.99396167	24.09210465	20.02187021
C	10.54007333	18.09359832	17.61899562
C	19.52129499	25.66127971	14.33391996
C	11.74521929	25.99414436	20.74144401
C	10.15494926	15.91955124	18.65184861
C	14.60738293	19.31647599	13.25863616
C	16.83421728	23.13878805	15.35013010
C	13.49331155	23.17836054	18.92644887
C	11.53041646	19.10891946	17.15001538
C	15.56711535	20.25571273	13.66075099
C	16.63512102	21.94153145	14.65908769
C	12.61491617	22.10426524	18.78141433
C	11.79418857	20.20127097	17.96369992
C	16.77489509	20.51047290	12.90858590
C	17.44536415	21.55385214	13.50844338
C	11.52828726	21.64079763	19.69863758
C	11.10537332	20.41923327	19.24201347
C	13.52499927	18.97594191	14.12328137
C	15.97782575	23.66237929	16.36062021
C	14.49558343	23.63357486	18.05881973
C	12.13283247	18.95445802	15.89293339
C	12.62881023	17.90178079	13.91799757
C	16.16878637	24.83128924	17.16775077
C	15.29452390	24.80613267	18.25552947
C	11.76072182	17.88953494	15.02734268
H	12.75024906	17.06797405	13.24595371
H	16.82881706	25.61104762	16.89189768
H	15.22311018	25.57025675	19.01075088
H	10.85745630	17.28707291	15.14902102
H	17.01608202	20.04370643	11.94828221
H	18.33534919	22.24062653	13.29006430
H	11.20830326	22.09437556	20.68637556
H	10.24708876	19.92725595	19.72487983
H	19.60687828	26.56277514	13.63844418
H	11.21927698	26.97448425	20.55906728
H	10.45143614	15.07417509	19.21854580
H	21.40762121	23.49827592	16.02108543
H	13.11459388	24.36994996	23.46684247
H	7.30745473	17.07557772	17.25008591
H	14.79068184	21.12151952	15.43204951
H	13.35491909	21.20090223	17.00028215
C	21.95646338	25.80161014	14.75074987
H	22.66583734	25.64408904	15.64848414
H	21.83306430	26.94907042	14.58760342
H	22.50086113	25.43521788	13.84945187
C	19.25118223	22.07572907	16.73690664
H	18.99553722	21.15746626	16.15417516
H	18.42716233	22.25638923	17.47896385
H	20.20354428	21.96197881	17.24984857
C	17.05209838	25.55337625	13.77133203
H	16.66470588	26.32927836	14.42351317
H	16.34910593	24.77805166	13.59137213
H	17.38517593	26.02166364	12.81981728
C	12.44178523	16.85053357	18.71511822
H	12.78666523	17.56059118	19.48268899
H	13.09436639	17.11057144	17.84142497
H	12.75500445	15.86731128	19.11048921
C	8.61410448	19.31812708	16.44312858
H	7.58491686	19.03457934	16.16156236
H	9.12237452	19.58850841	15.52395108
H	8.57954431	20.22022564	17.04621223
C	8.00603510	14.71597649	18.49904157
H	7.60979244	14.52767509	19.52232075
H	8.63230146	13.85636565	18.33463949
H	7.16506459	14.61600663	17.80344873
C	12.02804255	25.71080153	18.32212438
H	11.05126086	26.16005975	18.22360917
H	12.16407179	24.89999602	17.64152929
H	12.82237564	26.44350109	18.03729469
C	14.33368057	22.69973567	21.74522870
H	14.56774658	22.09982845	20.89988243
H	13.90247084	22.07854315	22.51471767
H	15.18609734	23.12579677	22.28510169
C	11.38980039	26.48325650	23.15997129
H	11.52084433	27.54902776	22.92739335
H	11.98900460	26.30733695	24.06529891
H	10.28258969	26.32620230	23.30808399
C	20.67677779	25.09370484	14.88102838
C	19.27231960	23.30144252	15.84910621
C	18.28549697	25.01217170	14.48623323
C	12.23396263	25.22525632	19.72275080
C	13.35161755	23.78491806	21.36099074
C	11.90258486	25.60148881	22.06717516
C	10.99835943	16.97980141	18.36046015
C	9.20137632	18.13049243	17.21307628
C	8.80673704	15.98144819	18.31491800
H	16.46688286	17.33474559	12.86231684
H	13.12611157	19.43428204	10.94069404
C	14.77639821	18.51827521	12.03513880
C	15.78516837	17.48396425	11.96541530
C	13.93880735	18.69659404	10.94058253

Ti O H C N 0
6-31G*
****

