%chk=f00012231.chk
%mem=24GB
%nproc=12
#p b3lyp/6-31G*

title

0 1
Ti	2.81187400	0.19704000	1.10336000
Ti	0.90594400	5.44057000	1.10336000
Ti	4.71781400	5.44057000	1.10336000
Ti	0.90594400	2.47241000	1.99114000
Ti	4.71781400	2.47241000	1.99114000
Ti	2.81187400	7.71594000	1.99115000
O	2.81187400	8.81302000	0.37332000
O	0.90594400	3.56949000	0.37332000
O	4.71781400	3.56949000	0.37332000
O	0.90594400	0.60134000	1.26110000
O	4.71781400	0.60134000	1.26110000
O	2.81187400	5.84486000	1.26111000
O	2.81187400	2.06812000	1.83340000
O	0.90594400	7.31164000	1.83340000
O	4.71781400	7.31164000	1.83340000
O	0.90594400	4.34349000	2.72118000
O	4.71781400	4.34349000	2.72118000
O	2.81187400	9.58701000	2.72118000
Ti	6.62374588	0.19704000	1.10336000
Ti	21.87123776	0.19704000	1.10336000
Ti	8.52968588	5.44057000	1.10336000
Ti	23.77717776	5.44057000	1.10336000
Ti	8.52968588	2.47241000	1.99114000
Ti	23.77717776	2.47241000	1.99114000
Ti	6.62374588	7.71594000	1.99115000
Ti	21.87123776	7.71594000	1.99115000
Ti	10.43561588	0.19704000	1.10336000
Ti	25.68310776	0.19704000	1.10336000
Ti	14.24749588	0.19704000	1.10336000
Ti	29.49498776	0.19704000	1.10336000
Ti	18.05936588	0.19704000	1.10336000
Ti	12.34155588	5.44057000	1.10336000
Ti	27.58904776	5.44057000	1.10336000
Ti	16.15343588	5.44057000	1.10336000
Ti	19.96530588	5.44057000	1.10336000
Ti	12.34155588	2.47241000	1.99114000
Ti	27.58904776	2.47241000	1.99114000
Ti	16.15343588	2.47241000	1.99114000
Ti	19.96530588	2.47241000	1.99114000
Ti	10.43561588	7.71594000	1.99115000
Ti	25.68310776	7.71594000	1.99115000
Ti	14.24749588	7.71594000	1.99115000
Ti	29.49498776	7.71594000	1.99115000
Ti	18.05936588	7.71594000	1.99115000
O	6.62374588	8.81302000	0.37332000
O	21.87123776	8.81302000	0.37332000
O	8.52968588	3.56949000	0.37332000
O	23.77717776	3.56949000	0.37332000
O	8.52968588	0.60134000	1.26110000
O	23.77717776	0.60134000	1.26110000
O	6.62374588	5.84486000	1.26111000
O	21.87123776	5.84486000	1.26111000
O	6.62374588	2.06812000	1.83340000
O	21.87123776	2.06812000	1.83340000
O	8.52968588	7.31164000	1.83340000
O	23.77717776	7.31164000	1.83340000
O	8.52968588	4.34349000	2.72118000
O	23.77717776	4.34349000	2.72118000
O	6.62374588	9.58701000	2.72118000
O	21.87123776	9.58701000	2.72118000
O	10.43561588	8.81302000	0.37332000
O	25.68310776	8.81302000	0.37332000
O	14.24749588	8.81302000	0.37332000
O	29.49498776	8.81302000	0.37332000
O	18.05936588	8.81302000	0.37332000
O	12.34155588	3.56949000	0.37332000
O	27.58904776	3.56949000	0.37332000
O	16.15343588	3.56949000	0.37332000
O	19.96530588	3.56949000	0.37332000
O	12.34155588	0.60134000	1.26110000
O	27.58904776	0.60134000	1.26110000
O	16.15343588	0.60134000	1.26110000
O	19.96530588	0.60134000	1.26110000
O	10.43561588	5.84486000	1.26111000
O	25.68310776	5.84486000	1.26111000
O	14.24749588	5.84486000	1.26111000
O	29.49498776	5.84486000	1.26111000
O	18.05936588	5.84486000	1.26111000
O	10.43561588	2.06812000	1.83340000
O	25.68310776	2.06812000	1.83340000
O	14.24749588	2.06812000	1.83340000
O	29.49498776	2.06812000	1.83340000
O	18.05936588	2.06812000	1.83340000
O	12.34155588	7.31164000	1.83340000
O	27.58904776	7.31164000	1.83340000
O	16.15343588	7.31164000	1.83340000
O	19.96530588	7.31164000	1.83340000
O	12.34155588	4.34349000	2.72118000
O	27.58904776	4.34349000	2.72118000
O	16.15343588	4.34349000	2.72118000
O	19.96530588	4.34349000	2.72118000
O	10.43561588	9.58701000	2.72118000
O	25.68310776	9.58701000	2.72118000
O	14.24749588	9.58701000	2.72118000
O	29.49498776	9.58701000	2.72118000
O	18.05936588	9.58701000	2.72118000
Ti	2.81187400	10.68408607	1.10336000
Ti	2.81187400	21.17113214	1.10336000
Ti	0.90594400	15.92761607	1.10336000
Ti	0.90594400	26.41466214	1.10336000
Ti	4.71781400	15.92761607	1.10336000
Ti	4.71781400	26.41466214	1.10336000
Ti	0.90594400	12.95945607	1.99114000
Ti	0.90594400	23.44650214	1.99114000
Ti	4.71781400	12.95945607	1.99114000
Ti	4.71781400	23.44650214	1.99114000
Ti	2.81187400	18.20298607	1.99115000
Ti	2.81187400	28.69003214	1.99115000
O	2.81187400	19.30006607	0.37332000
O	2.81187400	29.78711214	0.37332000
O	0.90594400	14.05653607	0.37332000
O	0.90594400	24.54358214	0.37332000
O	4.71781400	14.05653607	0.37332000
O	4.71781400	24.54358214	0.37332000
O	0.90594400	11.08838607	1.26110000
O	0.90594400	21.57543214	1.26110000
O	4.71781400	11.08838607	1.26110000
O	4.71781400	21.57543214	1.26110000
O	2.81187400	16.33190607	1.26111000
O	2.81187400	26.81895214	1.26111000
O	2.81187400	12.55516607	1.83340000
O	2.81187400	23.04221214	1.83340000
O	0.90594400	17.79868607	1.83340000
O	0.90594400	28.28573214	1.83340000
O	4.71781400	17.79868607	1.83340000
O	4.71781400	28.28573214	1.83340000
O	0.90594400	14.83053607	2.72118000
O	0.90594400	25.31758214	2.72118000
O	4.71781400	14.83053607	2.72118000
O	4.71781400	25.31758214	2.72118000
O	2.81187400	20.07405607	2.72118000
O	2.81187400	30.56110214	2.72118000
Ti	6.62374588	10.68408607	1.10336000
Ti	6.62374588	21.17113214	1.10336000
Ti	21.87123776	10.68408607	1.10336000
Ti	21.87123776	21.17113214	1.10336000
Ti	8.52968588	15.92761607	1.10336000
Ti	8.52968588	26.41466214	1.10336000
Ti	23.77717776	15.92761607	1.10336000
Ti	23.77717776	26.41466214	1.10336000
Ti	8.52968588	12.95945607	1.99114000
Ti	8.52968588	23.44650214	1.99114000
Ti	23.77717776	12.95945607	1.99114000
Ti	23.77717776	23.44650214	1.99114000
Ti	6.62374588	18.20298607	1.99115000
Ti	6.62374588	28.69003214	1.99115000
Ti	21.87123776	18.20298607	1.99115000
Ti	21.87123776	28.69003214	1.99115000
Ti	10.43561588	10.68408607	1.10336000
Ti	10.43561588	21.17113214	1.10336000
Ti	25.68310776	10.68408607	1.10336000
Ti	25.68310776	21.17113214	1.10336000
Ti	14.24749588	10.68408607	1.10336000
Ti	14.24749588	21.17113214	1.10336000
Ti	29.49498776	10.68408607	1.10336000
Ti	29.49498776	21.17113214	1.10336000
Ti	18.05936588	10.68408607	1.10336000
Ti	18.05936588	21.17113214	1.10336000
Ti	12.34155588	15.92761607	1.10336000
Ti	12.34155588	26.41466214	1.10336000
Ti	27.58904776	15.92761607	1.10336000
Ti	27.58904776	26.41466214	1.10336000
Ti	16.15343588	15.92761607	1.10336000
Ti	16.15343588	26.41466214	1.10336000
Ti	19.96530588	15.92761607	1.10336000
Ti	19.96530588	26.41466214	1.10336000
Ti	12.34155588	12.95945607	1.99114000
Ti	12.34155588	23.44650214	1.99114000
Ti	27.58904776	12.95945607	1.99114000
Ti	27.58904776	23.44650214	1.99114000
Ti	16.15343588	12.95945607	1.99114000
Ti	16.15343588	23.44650214	1.99114000
Ti	19.96530588	12.95945607	1.99114000
Ti	19.96530588	23.44650214	1.99114000
Ti	10.43561588	18.20298607	1.99115000
Ti	10.43561588	28.69003214	1.99115000
Ti	25.68310776	18.20298607	1.99115000
Ti	25.68310776	28.69003214	1.99115000
Ti	14.24749588	18.20298607	1.99115000
Ti	14.24749588	28.69003214	1.99115000
Ti	29.49498776	18.20298607	1.99115000
Ti	29.49498776	28.69003214	1.99115000
Ti	18.05936588	18.20298607	1.99115000
Ti	18.05936588	28.69003214	1.99115000
O	6.62374588	19.30006607	0.37332000
O	6.62374588	29.78711214	0.37332000
O	21.87123776	19.30006607	0.37332000
O	21.87123776	29.78711214	0.37332000
O	8.52968588	14.05653607	0.37332000
O	8.52968588	24.54358214	0.37332000
O	23.77717776	14.05653607	0.37332000
O	23.77717776	24.54358214	0.37332000
O	8.52968588	11.08838607	1.26110000
O	8.52968588	21.57543214	1.26110000
O	23.77717776	11.08838607	1.26110000
O	23.77717776	21.57543214	1.26110000
O	6.62374588	16.33190607	1.26111000
O	6.62374588	26.81895214	1.26111000
O	21.87123776	16.33190607	1.26111000
O	21.87123776	26.81895214	1.26111000
O	6.62374588	12.55516607	1.83340000
O	6.62374588	23.04221214	1.83340000
O	21.87123776	12.55516607	1.83340000
O	21.87123776	23.04221214	1.83340000
O	8.52968588	17.79868607	1.83340000
O	8.52968588	28.28573214	1.83340000
O	23.77717776	17.79868607	1.83340000
O	23.77717776	28.28573214	1.83340000
O	8.52968588	14.83053607	2.72118000
O	8.52968588	25.31758214	2.72118000
O	23.77717776	14.83053607	2.72118000
O	23.77717776	25.31758214	2.72118000
O	6.62374588	20.07405607	2.72118000
O	6.62374588	30.56110214	2.72118000
O	21.87123776	20.07405607	2.72118000
O	21.87123776	30.56110214	2.72118000
O	10.43561588	19.30006607	0.37332000
O	10.43561588	29.78711214	0.37332000
O	25.68310776	19.30006607	0.37332000
O	25.68310776	29.78711214	0.37332000
O	14.24749588	19.30006607	0.37332000
O	14.24749588	29.78711214	0.37332000
O	29.49498776	19.30006607	0.37332000
O	29.49498776	29.78711214	0.37332000
O	18.05936588	19.30006607	0.37332000
O	18.05936588	29.78711214	0.37332000
O	12.34155588	14.05653607	0.37332000
O	12.34155588	24.54358214	0.37332000
O	27.58904776	14.05653607	0.37332000
O	27.58904776	24.54358214	0.37332000
O	16.15343588	14.05653607	0.37332000
O	16.15343588	24.54358214	0.37332000
O	19.96530588	14.05653607	0.37332000
O	19.96530588	24.54358214	0.37332000
O	12.34155588	11.08838607	1.26110000
O	12.34155588	21.57543214	1.26110000
O	27.58904776	11.08838607	1.26110000
O	27.58904776	21.57543214	1.26110000
O	16.15343588	11.08838607	1.26110000
O	16.15343588	21.57543214	1.26110000
O	19.96530588	11.08838607	1.26110000
O	19.96530588	21.57543214	1.26110000
O	10.43561588	16.33190607	1.26111000
O	10.43561588	26.81895214	1.26111000
O	25.68310776	16.33190607	1.26111000
O	25.68310776	26.81895214	1.26111000
O	14.24749588	16.33190607	1.26111000
O	14.24749588	26.81895214	1.26111000
O	29.49498776	16.33190607	1.26111000
O	29.49498776	26.81895214	1.26111000
O	18.05936588	16.33190607	1.26111000
O	18.05936588	26.81895214	1.26111000
O	10.43561588	12.55516607	1.83340000
O	10.43561588	23.04221214	1.83340000
O	25.68310776	12.55516607	1.83340000
O	25.68310776	23.04221214	1.83340000
O	14.24749588	12.55516607	1.83340000
O	14.24749588	23.04221214	1.83340000
O	29.49498776	12.55516607	1.83340000
O	29.49498776	23.04221214	1.83340000
O	18.05936588	12.55516607	1.83340000
O	18.05936588	23.04221214	1.83340000
O	12.34155588	17.79868607	1.83340000
O	12.34155588	28.28573214	1.83340000
O	27.58904776	17.79868607	1.83340000
O	27.58904776	28.28573214	1.83340000
O	16.15343588	17.79868607	1.83340000
O	16.15343588	28.28573214	1.83340000
O	19.96530588	17.79868607	1.83340000
O	19.96530588	28.28573214	1.83340000
O	12.34155588	14.83053607	2.72118000
O	12.34155588	25.31758214	2.72118000
O	27.58904776	14.83053607	2.72118000
O	27.58904776	25.31758214	2.72118000
O	16.15343588	14.83053607	2.72118000
O	16.15343588	25.31758214	2.72118000
O	19.96530588	14.83053607	2.72118000
O	19.96530588	25.31758214	2.72118000
O	10.43561588	20.07405607	2.72118000
O	10.43561588	30.56110214	2.72118000
O	25.68310776	20.07405607	2.72118000
O	25.68310776	30.56110214	2.72118000
O	14.24749588	20.07405607	2.72118000
O	14.24749588	30.56110214	2.72118000
O	29.49498776	20.07405607	2.72118000
O	29.49498776	30.56110214	2.72118000
O	18.05936588	20.07405607	2.72118000
O	18.05936588	30.56110214	2.72118000
Ti	6.64974291	9.16836177	4.73472442
Ti	6.58828205	6.16982919	5.33662960
Ti	2.85007677	9.23357963	4.76392491
Ti	0.92774713	3.89611522	4.77101138
Ti	4.67149420	3.90936195	4.78133414
Ti	0.83173260	0.97728824	5.48726712
Ti	4.60801583	0.95997702	5.59227948
Ti	2.76473132	6.38141990	5.45037555
O	6.61353215	7.32239339	3.89262316
O	6.61033863	4.41163800	4.68880207
O	6.58840645	0.54041179	5.79098663
O	6.45898430	7.89477330	6.24142891
O	2.87302687	7.44669597	3.86345591
O	0.97017777	1.98305041	3.95620801
O	4.68414906	2.08918261	4.00641025
O	0.92039096	9.66085703	4.65360999
O	4.79655961	9.59479877	4.84736091
O	2.79944935	4.41352507	4.96355677
O	2.73062312	0.45447258	5.76279540
O	0.88450051	5.76230038	5.64194110
O	4.68664368	5.81487868	5.69664909
O	0.65287758	2.70326378	6.41605609
O	4.44966081	2.67909977	6.34657876
O	2.80425920	8.20707467	6.31237072
Ti	21.85215740	9.31527223	4.79346271
Ti	8.52461476	3.94069248	4.68990031
Ti	23.79319094	3.93791176	4.68795420
Ti	8.47737050	1.06981812	5.52283354
Ti	23.84611990	1.03376401	5.46922452
Ti	21.99221507	6.33026673	5.40695391
Ti	10.46189536	9.30026964	4.70613242
Ti	25.73185173	9.20765625	4.76499374
Ti	14.25324155	9.33770778	4.78386172
Ti	29.52326336	9.22785440	4.87006701
Ti	18.01859936	9.30832801	4.72253897
Ti	12.40400957	3.94069773	4.85281555
Ti	27.53953276	3.91897581	4.78973697
Ti	16.20057652	4.13957789	4.72600642
Ti	20.05506167	4.00148889	4.97151169
Ti	12.27343474	1.04366493	5.54719075
Ti	27.60089312	1.00091372	5.42590884
Ti	16.21506987	1.17606236	5.54549683
Ti	19.93524287	1.02632805	5.42285932
Ti	10.44814328	6.32847691	5.47782865
Ti	25.68036827	6.31022903	5.54295235
Ti	14.30433670	6.37812848	5.57403161
Ti	29.49757136	6.26032656	5.34562265
Ti	18.21715381	6.42877442	5.52318424
O	21.90713360	7.25265639	3.88392282
O	8.56249931	2.02839633	3.90125106
O	23.77656234	1.98220064	3.96401434
O	8.58762830	9.69613297	4.86770312
O	23.86553864	9.74825069	4.65447222
O	21.93933577	4.39795861	4.78137185
O	21.87182420	0.57638953	5.73425705
O	8.48799148	5.85520940	5.74058199
O	23.74264301	5.75236423	5.78192642
O	8.60382045	2.76632580	6.34205039
O	23.80173521	2.84955457	6.36504170
O	21.99090004	8.01803583	6.25879361
O	10.62142696	7.35799624	3.97272769
O	25.73499854	7.37338422	3.95643106
O	14.05140591	7.32609334	3.97350415
O	29.54336214	7.36111056	3.86276693
O	18.18607295	7.44604481	3.91767206
O	12.48333308	2.10214747	3.97347992
O	27.43674679	2.12153300	3.87108535
O	16.36560369	2.14719424	3.93488272
O	19.75672438	2.14353820	3.94747142
O	12.38378959	9.75211211	4.87549119
O	27.59827683	9.65643668	4.79144290
O	16.10740847	9.79278467	4.67943747
O	19.93493935	9.70679452	4.82155639
O	10.52968455	4.42125843	4.79392402
O	25.70856198	4.42388526	4.71461441
O	14.29416191	4.54602782	4.83323382
O	29.57548488	4.38114470	4.66184625
O	18.15874530	4.58003715	4.76745859
O	10.37418173	0.59999035	5.82248524
O	25.75977854	0.48049355	5.74607373
O	14.29257161	0.61540826	5.88904288
O	29.45630922	0.45708147	5.57887523
O	18.02405394	0.59044037	5.78374080
O	12.41632197	5.81165977	5.85039945
O	27.61433481	5.75515374	5.78556893
O	16.26416118	5.98499768	5.58893860
O	20.00882498	5.86737494	5.93469640
O	12.32515504	2.82628883	6.47542571
O	27.82298538	2.73221456	6.27950442
O	16.27373545	2.93298362	6.32117266
O	20.09693560	2.77800225	6.40050853
O	10.61356708	8.09775551	6.43344280
O	25.72823238	8.06120011	6.36929933
O	14.25540566	8.16433204	6.36666100
O	29.65289827	7.96963417	6.33833395
O	17.94905144	8.25470170	6.28726635
Ti	6.65788625	19.75702595	4.71733277
Ti	6.57420859	30.21638627	4.76743346
Ti	6.64701643	16.83276554	5.55830763
Ti	6.51072595	27.34595459	5.58472274
Ti	2.83386558	19.76832830	4.83423772
Ti	2.67603777	30.17070440	4.77794968
Ti	0.88363051	14.45932726	4.81227648
Ti	0.91220411	25.01797740	4.70993477
Ti	4.69978261	14.46180240	4.84336118
Ti	4.75442775	24.96887525	4.68973230
Ti	0.96558558	11.56418741	5.58199244
Ti	0.90146616	22.07454859	5.50037273
Ti	4.84985459	11.47952532	5.46658756
Ti	4.67116986	22.05952735	5.47263345
Ti	2.87798050	16.80421837	5.53276799
Ti	2.88362922	27.32114618	5.56021649
O	6.64154076	17.68541541	3.95319335
O	6.61869604	28.37143301	3.96778587
O	6.55401136	14.77682189	4.99512402
O	6.59121341	25.54971759	4.58587665
O	6.72002282	11.00833083	5.83405802
O	6.66816953	21.54294866	5.75983089
O	6.52228682	18.61402037	6.35908772
O	6.41574766	29.06841224	6.45426793
O	2.93746586	17.91839921	3.95720578
O	2.85309160	28.28079393	3.99876843
O	0.83580654	12.64711017	3.95393323
O	0.97631861	23.17399189	3.97237716
O	4.78185173	12.59845183	3.94865450
O	4.69443745	23.02597840	3.82966547
O	0.92684470	20.19829236	4.73400816
O	0.85229983	30.50118990	4.84848128
O	4.71038907	20.08629193	4.75366878
O	4.56132818	30.53959220	4.82915371
O	2.75137783	14.82194940	4.77970196
O	2.82109558	25.38541853	4.68235536
O	2.88666092	11.07847615	5.70113842
O	2.78570701	21.56486813	5.64498623
O	0.95829501	16.28292300	5.74602643
O	0.91234844	26.81390611	5.90731573
O	4.73019747	16.23129195	5.79043662
O	4.71014516	26.67896670	5.84340831
O	0.81633964	13.31194606	6.43618318
O	0.94248975	23.89913390	6.30568658
O	4.64595092	13.16857768	6.40273851
O	4.74377031	23.76277087	6.27438685
O	2.88681671	18.45144580	6.47290834
O	2.78896627	28.98186545	6.38629478
Ti	21.86557570	19.67084073	4.80189669
Ti	21.90909942	30.22721382	4.81829424
Ti	8.43775056	14.46161165	4.93341100
Ti	8.47513167	24.93083692	4.77608672
Ti	23.91060465	14.43074434	4.78713087
Ti	23.73282365	24.95093549	4.82159989
Ti	8.58218356	11.56340800	5.57643532
Ti	8.68856915	21.96125397	5.46879083
Ti	23.86529007	11.52246688	5.49924047
Ti	23.89882033	22.03413589	5.49398433
Ti	21.90316112	16.74121551	5.52087220
Ti	21.80316040	27.29036100	5.46753402
Ti	10.54617601	19.63734020	4.77699008
Ti	10.45824071	30.22103551	4.67081859
Ti	25.73269050	19.68859816	4.74343875
Ti	25.74502130	30.16168981	4.76721728
Ti	14.26273475	19.58143402	4.67255613
Ti	14.20422532	30.19783455	4.83506704
Ti	29.55653730	19.72241876	4.71231141
Ti	29.41958933	30.13389046	4.70757667
Ti	18.11084935	19.75887529	4.69823745
Ti	17.96288903	30.16202768	4.75390383
Ti	12.30538355	14.52865015	4.77956121
Ti	12.31350036	24.90506860	4.91304370
Ti	27.68899311	14.45829145	4.79746801
Ti	27.55440530	25.02287194	4.69168456
Ti	16.13589776	14.50289283	4.70390412
Ti	16.08872963	24.90991724	4.77477787
Ti	20.06188334	14.49445323	4.74151762
Ti	19.93033543	25.00208142	4.73396659
Ti	12.35258032	11.63021201	5.56859066
Ti	12.50734649	21.98402943	5.43066810
Ti	27.57334652	11.53437655	5.54675225
Ti	27.58664263	22.03919566	5.42849793
Ti	16.13650924	11.63215066	5.58268677
Ti	16.09913079	22.01240804	5.52304397
Ti	19.93519034	11.60559068	5.54847634
Ti	19.99262666	22.07623865	5.55248737
Ti	10.41726764	16.76334154	5.58074436
Ti	10.40480967	27.25083114	5.54260292
Ti	25.67067500	16.80123129	5.48908717
Ti	25.72060883	27.31207907	5.52391924
Ti	14.25968573	16.74602040	5.84710833
Ti	14.15382856	27.30939842	5.61730689
Ti	29.57576730	16.75568865	5.48657648
Ti	29.49626789	27.24586920	5.55937732
Ti	18.08475886	16.73202277	5.57729473
Ti	17.98168695	27.27677699	5.50602002
O	21.70920672	17.81885276	3.94821832
O	21.78114295	28.31809221	3.96161687
O	8.57133149	12.58086525	3.99625119
O	8.45393896	23.20777838	3.96922688
O	23.80666342	12.53348032	3.88432471
O	23.82112530	23.12562179	3.94044174
O	8.64635097	20.11875723	4.72767307
O	8.46675343	30.68950347	4.66639931
O	23.79937440	20.06687615	4.84289211
O	23.83647008	30.59864217	4.82245543
O	22.02240361	14.89479175	4.78818241
O	21.79463738	25.36177494	4.86270155
O	21.95371723	11.07763662	5.80963299
O	21.94443374	21.50580921	5.69116857
O	8.46996018	16.25533810	5.85560917
O	8.41106719	26.86628666	5.95779254
O	23.74653726	16.40732659	5.73013858
O	23.77241566	26.76394775	5.82627951
O	8.52036752	13.21867772	6.49725967
O	8.64088077	23.75139607	6.33717883
O	23.71462981	13.30124789	6.34479720
O	23.72929910	23.81604070	6.31169324
O	21.97230894	18.48663285	6.40174756
O	21.98316674	29.10744211	6.28551392
O	10.50050617	17.78967476	3.95666814
O	10.51476943	28.29108992	3.94186871
O	25.82771954	17.84096717	3.90628454
O	25.66740717	28.24823039	3.95657120
O	14.16325554	17.72737957	3.94253471
O	13.90866940	28.32566675	4.06395792
O	29.58590756	17.87887766	3.96426830
O	29.57877842	28.22639786	3.93752588
O	18.17434731	17.77617219	3.88410114
O	18.06546528	28.32907901	3.93604191
O	12.16657665	12.63670472	3.97743010
O	12.39165276	23.09639803	3.90350758
O	27.68019576	12.60495952	3.96300844
O	27.65634488	23.03841659	3.85727246
O	16.31840991	12.68875066	3.91203261
O	16.12728558	23.07322050	3.93212501
O	19.88610551	12.56251357	3.88057296
O	19.96418252	23.15295347	3.97170485
O	12.45514302	20.06603635	4.88466638
O	12.34188265	30.70560432	4.77373720
O	27.70229206	20.14869527	4.68901436
O	27.60188404	30.57496353	4.80140470
O	16.21951416	20.11613940	4.63589179
O	16.11159415	30.71297110	4.68437975
O	19.96737908	20.21201013	4.76888550
O	19.93170122	30.57529411	4.82748236
O	10.36275911	15.01711565	4.69833209
O	10.37168779	25.38558214	4.82818191
O	25.78190680	14.94719878	4.76944414
O	25.68177286	25.45587588	4.72316830
O	14.22898242	14.96909709	4.77582422
O	14.17000666	25.49466281	4.79163973
O	29.52964449	14.91993563	4.72098283
O	29.50591663	25.47133748	4.87741175
O	18.12384706	14.91706338	4.72212453
O	17.98542862	25.51191922	4.66585818
O	10.45538537	11.00765275	5.90503671
O	10.56596044	21.60255173	5.65983740
O	25.69629253	10.96301570	5.88524724
O	25.81424196	21.41207631	5.77118298
O	14.23067278	11.01849212	5.78209876
O	14.28623272	21.30953169	5.98031685
O	29.55461059	10.99238441	5.84812962
O	29.48798235	21.58828834	5.76923110
O	18.00801569	11.10137135	5.79290791
O	18.01085994	21.48784802	5.82188815
O	12.29192783	16.28753417	5.85772769
O	12.27832222	26.64904908	5.96017436
O	27.67492778	16.28431836	5.88150793
O	27.59949901	26.72824826	5.81491922
O	16.18558748	16.42868441	5.61591842
O	16.11253224	26.79717862	5.66027287
O	19.97893936	16.35550504	5.79680418
O	19.94175272	26.82414224	5.72394667
O	12.53098199	13.40927853	6.34205031
O	12.32000261	23.64856987	6.35180380
O	27.84851541	13.25280451	6.43481356
O	27.51886473	23.84975456	6.17237750
O	16.27190328	13.34819218	6.30014277
O	16.21403952	23.77559777	6.28587592
O	19.78199812	13.35859008	6.32431990
O	19.73729723	23.87707744	6.39774443
O	10.48599688	18.50450078	6.41476574
O	10.37140123	29.10096205	6.30358892
O	25.73607452	18.60402573	6.30854648
O	25.90932387	29.00261211	6.39703216
O	14.25079874	18.55287972	6.30802494
O	14.24119956	29.04177507	6.34687311
O	29.64039609	18.51120305	6.19331212
O	29.41667698	29.00564510	6.39379476
O	17.68679544	18.58609466	6.21347896
O	17.88183508	29.07070654	6.26947721
H	16.37650827	14.62217099	7.88727028
H	15.98406792	15.40416180	11.13799520
H	13.25699053	17.86047335	8.80728206
O	14.38485268	15.85226629	7.51634966
O	15.95253520	14.97866371	8.69327164
C	14.97857468	15.80978149	8.62623499
C	14.63782739	16.54532428	9.86158618
C	15.33133256	16.27920476	11.05481959
C	13.76904784	17.67319768	9.82963466
N	12.80127866	19.52920267	15.45678339
N	15.38719929	22.51857175	16.94144443
N	15.29435269	20.91635724	14.49771873
N	13.08585973	20.95460372	17.95414186
C	20.36225338	24.32531708	14.40573234
C	15.70195001	24.07652968	22.58569262
C	7.82169946	18.08303790	18.22937166
C	18.01985620	23.56350960	14.39937690
C	14.43899166	23.56924192	20.49744006
C	10.19406121	18.44356718	18.00177937
C	18.66605140	25.36465435	12.97177212
C	13.65013597	25.22643997	22.02982091
C	9.34285080	16.58197597	19.32189194
C	14.08201580	19.01962811	13.36775312
C	16.87964305	22.77944777	14.99511582
C	14.33379957	22.75523839	19.22521420
C	11.30399347	19.23758403	17.40722455
C	15.14024301	19.98775882	13.46142941
C	16.42066562	21.64321160	14.22976428
C	13.31002694	21.83528460	19.03993050
C	11.93967672	20.24730823	18.21459360
C	16.22945110	20.13824261	12.56401375
C	17.04219963	21.19134665	13.01751721
C	12.26998902	21.57168500	20.02957521
C	11.40449993	20.59930544	19.52794832
C	12.97802732	18.93417620	14.22877640
C	16.40819455	23.15415339	16.27333405
C	15.21125757	23.11916596	18.16012624
C	11.75451996	18.87201654	16.13218493
C	11.93157060	17.89816222	14.08732388
C	16.93947426	24.20526463	17.12877019
C	16.12713698	24.22570712	18.26035963
C	11.18755717	17.90368820	15.24090454
H	11.70150171	17.41079048	13.12229659
H	17.87891460	24.82417059	16.94326970
H	16.38601109	24.88222574	19.08023410
H	10.25014871	17.38007305	15.44848176
H	16.42133574	19.65432141	11.59916956
H	17.87053405	21.54499472	12.49612420
H	12.15911802	22.12415582	20.97954374
H	10.56977187	20.09492919	19.97735805
H	18.40110840	26.19068623	12.29428225
H	12.86097836	25.92976029	22.32168572
H	9.55641229	15.71259703	20.00349237
H	21.38343328	24.27532249	14.75293896
H	16.64539363	23.89134460	23.16550140
H	6.79724544	18.36769440	18.09494906
H	14.69260846	21.05879209	15.31579364
H	13.47803612	21.10316160	17.02092953
C	21.09990188	25.87393071	12.65018530
H	20.71111254	25.84560933	11.63694954
H	22.01764754	25.28044432	12.74572415
H	21.19568923	26.84793892	12.99499787
C	19.74255349	22.30186862	15.75802102
H	19.47923113	21.29362319	15.31603670
H	19.18831565	22.36586793	16.72454957
H	20.82369858	22.30016317	15.95878362
C	16.23711075	24.84044745	13.12832056
H	15.86632412	24.32141566	12.25077012
H	15.99370440	25.94757070	13.05214161
H	15.54912231	24.40824730	13.92334936
C	11.80016599	16.96777051	19.30507156
H	11.84845338	17.10066763	20.39574591
H	12.50435766	17.68609267	18.91354275
H	12.15913398	15.96558288	19.11103319
C	8.58688768	19.96660520	16.83547320
H	7.52374828	20.20343732	16.75139763
H	9.07438168	19.91918143	15.84918001
H	9.03335920	20.82958924	17.34512600
C	6.84624217	16.28532235	19.54199271
H	6.41369219	15.75144467	18.70888923
H	6.09356729	17.00119227	19.93543352
H	7.06259081	15.59685020	20.36780306
C	12.39312120	24.97306279	19.84894815
H	11.86477222	24.10263539	19.49171766
H	12.84974590	25.45749002	19.00926052
H	11.65413008	25.58527965	20.34468688
C	16.42704424	22.23756658	21.04133817
H	16.69440431	21.62523237	21.85879373
H	17.32113028	22.64015825	20.64104897
H	15.92132310	21.52909533	20.37931033
C	14.74591098	25.76725231	24.18800484
H	13.74121362	25.47472003	24.59390257
H	14.72459600	26.86835902	24.02070342
H	15.55910918	25.56566061	24.84101991
C	19.98655183	25.21013026	13.39927733
C	19.34366795	23.42959216	14.83733489
C	17.63910670	24.53976315	13.45731265
C	13.50000287	24.56019019	20.79505084
C	15.51778258	23.35656284	21.36521711
C	14.74722743	25.01637547	22.89893753
C	10.44584309	17.31006648	18.84699505
C	8.88180542	18.78437232	17.65468179
C	8.04865112	16.99457516	19.05015766
H	15.76799665	17.01031878	13.05318592
H	12.87182401	19.37569939	11.00306272
C	14.24679104	18.18885157	12.15120598
C	15.16742965	17.11206107	12.16457713
C	13.52270471	18.46664009	10.93577711

Ti O H C N 0
6-31G*
****

