%chk=f00019632.chk
%mem=24GB
%nproc=12
#p b3lyp/6-31G*

title

0 1
Ti	2.81187400	0.19704000	1.10336000
Ti	0.90594400	5.44057000	1.10336000
Ti	4.71781400	5.44057000	1.10336000
Ti	0.90594400	2.47241000	1.99114000
Ti	4.71781400	2.47241000	1.99114000
Ti	2.81187400	7.71594000	1.99115000
O	2.81187400	8.81302000	0.37332000
O	0.90594400	3.56949000	0.37332000
O	4.71781400	3.56949000	0.37332000
O	0.90594400	0.60134000	1.26110000
O	4.71781400	0.60134000	1.26110000
O	2.81187400	5.84486000	1.26111000
O	2.81187400	2.06812000	1.83340000
O	0.90594400	7.31164000	1.83340000
O	4.71781400	7.31164000	1.83340000
O	0.90594400	4.34349000	2.72118000
O	4.71781400	4.34349000	2.72118000
O	2.81187400	9.58701000	2.72118000
Ti	6.62374588	0.19704000	1.10336000
Ti	21.87123776	0.19704000	1.10336000
Ti	8.52968588	5.44057000	1.10336000
Ti	23.77717776	5.44057000	1.10336000
Ti	8.52968588	2.47241000	1.99114000
Ti	23.77717776	2.47241000	1.99114000
Ti	6.62374588	7.71594000	1.99115000
Ti	21.87123776	7.71594000	1.99115000
Ti	10.43561588	0.19704000	1.10336000
Ti	25.68310776	0.19704000	1.10336000
Ti	14.24749588	0.19704000	1.10336000
Ti	29.49498776	0.19704000	1.10336000
Ti	18.05936588	0.19704000	1.10336000
Ti	12.34155588	5.44057000	1.10336000
Ti	27.58904776	5.44057000	1.10336000
Ti	16.15343588	5.44057000	1.10336000
Ti	19.96530588	5.44057000	1.10336000
Ti	12.34155588	2.47241000	1.99114000
Ti	27.58904776	2.47241000	1.99114000
Ti	16.15343588	2.47241000	1.99114000
Ti	19.96530588	2.47241000	1.99114000
Ti	10.43561588	7.71594000	1.99115000
Ti	25.68310776	7.71594000	1.99115000
Ti	14.24749588	7.71594000	1.99115000
Ti	29.49498776	7.71594000	1.99115000
Ti	18.05936588	7.71594000	1.99115000
O	6.62374588	8.81302000	0.37332000
O	21.87123776	8.81302000	0.37332000
O	8.52968588	3.56949000	0.37332000
O	23.77717776	3.56949000	0.37332000
O	8.52968588	0.60134000	1.26110000
O	23.77717776	0.60134000	1.26110000
O	6.62374588	5.84486000	1.26111000
O	21.87123776	5.84486000	1.26111000
O	6.62374588	2.06812000	1.83340000
O	21.87123776	2.06812000	1.83340000
O	8.52968588	7.31164000	1.83340000
O	23.77717776	7.31164000	1.83340000
O	8.52968588	4.34349000	2.72118000
O	23.77717776	4.34349000	2.72118000
O	6.62374588	9.58701000	2.72118000
O	21.87123776	9.58701000	2.72118000
O	10.43561588	8.81302000	0.37332000
O	25.68310776	8.81302000	0.37332000
O	14.24749588	8.81302000	0.37332000
O	29.49498776	8.81302000	0.37332000
O	18.05936588	8.81302000	0.37332000
O	12.34155588	3.56949000	0.37332000
O	27.58904776	3.56949000	0.37332000
O	16.15343588	3.56949000	0.37332000
O	19.96530588	3.56949000	0.37332000
O	12.34155588	0.60134000	1.26110000
O	27.58904776	0.60134000	1.26110000
O	16.15343588	0.60134000	1.26110000
O	19.96530588	0.60134000	1.26110000
O	10.43561588	5.84486000	1.26111000
O	25.68310776	5.84486000	1.26111000
O	14.24749588	5.84486000	1.26111000
O	29.49498776	5.84486000	1.26111000
O	18.05936588	5.84486000	1.26111000
O	10.43561588	2.06812000	1.83340000
O	25.68310776	2.06812000	1.83340000
O	14.24749588	2.06812000	1.83340000
O	29.49498776	2.06812000	1.83340000
O	18.05936588	2.06812000	1.83340000
O	12.34155588	7.31164000	1.83340000
O	27.58904776	7.31164000	1.83340000
O	16.15343588	7.31164000	1.83340000
O	19.96530588	7.31164000	1.83340000
O	12.34155588	4.34349000	2.72118000
O	27.58904776	4.34349000	2.72118000
O	16.15343588	4.34349000	2.72118000
O	19.96530588	4.34349000	2.72118000
O	10.43561588	9.58701000	2.72118000
O	25.68310776	9.58701000	2.72118000
O	14.24749588	9.58701000	2.72118000
O	29.49498776	9.58701000	2.72118000
O	18.05936588	9.58701000	2.72118000
Ti	2.81187400	10.68408607	1.10336000
Ti	2.81187400	21.17113214	1.10336000
Ti	0.90594400	15.92761607	1.10336000
Ti	0.90594400	26.41466214	1.10336000
Ti	4.71781400	15.92761607	1.10336000
Ti	4.71781400	26.41466214	1.10336000
Ti	0.90594400	12.95945607	1.99114000
Ti	0.90594400	23.44650214	1.99114000
Ti	4.71781400	12.95945607	1.99114000
Ti	4.71781400	23.44650214	1.99114000
Ti	2.81187400	18.20298607	1.99115000
Ti	2.81187400	28.69003214	1.99115000
O	2.81187400	19.30006607	0.37332000
O	2.81187400	29.78711214	0.37332000
O	0.90594400	14.05653607	0.37332000
O	0.90594400	24.54358214	0.37332000
O	4.71781400	14.05653607	0.37332000
O	4.71781400	24.54358214	0.37332000
O	0.90594400	11.08838607	1.26110000
O	0.90594400	21.57543214	1.26110000
O	4.71781400	11.08838607	1.26110000
O	4.71781400	21.57543214	1.26110000
O	2.81187400	16.33190607	1.26111000
O	2.81187400	26.81895214	1.26111000
O	2.81187400	12.55516607	1.83340000
O	2.81187400	23.04221214	1.83340000
O	0.90594400	17.79868607	1.83340000
O	0.90594400	28.28573214	1.83340000
O	4.71781400	17.79868607	1.83340000
O	4.71781400	28.28573214	1.83340000
O	0.90594400	14.83053607	2.72118000
O	0.90594400	25.31758214	2.72118000
O	4.71781400	14.83053607	2.72118000
O	4.71781400	25.31758214	2.72118000
O	2.81187400	20.07405607	2.72118000
O	2.81187400	30.56110214	2.72118000
Ti	6.62374588	10.68408607	1.10336000
Ti	6.62374588	21.17113214	1.10336000
Ti	21.87123776	10.68408607	1.10336000
Ti	21.87123776	21.17113214	1.10336000
Ti	8.52968588	15.92761607	1.10336000
Ti	8.52968588	26.41466214	1.10336000
Ti	23.77717776	15.92761607	1.10336000
Ti	23.77717776	26.41466214	1.10336000
Ti	8.52968588	12.95945607	1.99114000
Ti	8.52968588	23.44650214	1.99114000
Ti	23.77717776	12.95945607	1.99114000
Ti	23.77717776	23.44650214	1.99114000
Ti	6.62374588	18.20298607	1.99115000
Ti	6.62374588	28.69003214	1.99115000
Ti	21.87123776	18.20298607	1.99115000
Ti	21.87123776	28.69003214	1.99115000
Ti	10.43561588	10.68408607	1.10336000
Ti	10.43561588	21.17113214	1.10336000
Ti	25.68310776	10.68408607	1.10336000
Ti	25.68310776	21.17113214	1.10336000
Ti	14.24749588	10.68408607	1.10336000
Ti	14.24749588	21.17113214	1.10336000
Ti	29.49498776	10.68408607	1.10336000
Ti	29.49498776	21.17113214	1.10336000
Ti	18.05936588	10.68408607	1.10336000
Ti	18.05936588	21.17113214	1.10336000
Ti	12.34155588	15.92761607	1.10336000
Ti	12.34155588	26.41466214	1.10336000
Ti	27.58904776	15.92761607	1.10336000
Ti	27.58904776	26.41466214	1.10336000
Ti	16.15343588	15.92761607	1.10336000
Ti	16.15343588	26.41466214	1.10336000
Ti	19.96530588	15.92761607	1.10336000
Ti	19.96530588	26.41466214	1.10336000
Ti	12.34155588	12.95945607	1.99114000
Ti	12.34155588	23.44650214	1.99114000
Ti	27.58904776	12.95945607	1.99114000
Ti	27.58904776	23.44650214	1.99114000
Ti	16.15343588	12.95945607	1.99114000
Ti	16.15343588	23.44650214	1.99114000
Ti	19.96530588	12.95945607	1.99114000
Ti	19.96530588	23.44650214	1.99114000
Ti	10.43561588	18.20298607	1.99115000
Ti	10.43561588	28.69003214	1.99115000
Ti	25.68310776	18.20298607	1.99115000
Ti	25.68310776	28.69003214	1.99115000
Ti	14.24749588	18.20298607	1.99115000
Ti	14.24749588	28.69003214	1.99115000
Ti	29.49498776	18.20298607	1.99115000
Ti	29.49498776	28.69003214	1.99115000
Ti	18.05936588	18.20298607	1.99115000
Ti	18.05936588	28.69003214	1.99115000
O	6.62374588	19.30006607	0.37332000
O	6.62374588	29.78711214	0.37332000
O	21.87123776	19.30006607	0.37332000
O	21.87123776	29.78711214	0.37332000
O	8.52968588	14.05653607	0.37332000
O	8.52968588	24.54358214	0.37332000
O	23.77717776	14.05653607	0.37332000
O	23.77717776	24.54358214	0.37332000
O	8.52968588	11.08838607	1.26110000
O	8.52968588	21.57543214	1.26110000
O	23.77717776	11.08838607	1.26110000
O	23.77717776	21.57543214	1.26110000
O	6.62374588	16.33190607	1.26111000
O	6.62374588	26.81895214	1.26111000
O	21.87123776	16.33190607	1.26111000
O	21.87123776	26.81895214	1.26111000
O	6.62374588	12.55516607	1.83340000
O	6.62374588	23.04221214	1.83340000
O	21.87123776	12.55516607	1.83340000
O	21.87123776	23.04221214	1.83340000
O	8.52968588	17.79868607	1.83340000
O	8.52968588	28.28573214	1.83340000
O	23.77717776	17.79868607	1.83340000
O	23.77717776	28.28573214	1.83340000
O	8.52968588	14.83053607	2.72118000
O	8.52968588	25.31758214	2.72118000
O	23.77717776	14.83053607	2.72118000
O	23.77717776	25.31758214	2.72118000
O	6.62374588	20.07405607	2.72118000
O	6.62374588	30.56110214	2.72118000
O	21.87123776	20.07405607	2.72118000
O	21.87123776	30.56110214	2.72118000
O	10.43561588	19.30006607	0.37332000
O	10.43561588	29.78711214	0.37332000
O	25.68310776	19.30006607	0.37332000
O	25.68310776	29.78711214	0.37332000
O	14.24749588	19.30006607	0.37332000
O	14.24749588	29.78711214	0.37332000
O	29.49498776	19.30006607	0.37332000
O	29.49498776	29.78711214	0.37332000
O	18.05936588	19.30006607	0.37332000
O	18.05936588	29.78711214	0.37332000
O	12.34155588	14.05653607	0.37332000
O	12.34155588	24.54358214	0.37332000
O	27.58904776	14.05653607	0.37332000
O	27.58904776	24.54358214	0.37332000
O	16.15343588	14.05653607	0.37332000
O	16.15343588	24.54358214	0.37332000
O	19.96530588	14.05653607	0.37332000
O	19.96530588	24.54358214	0.37332000
O	12.34155588	11.08838607	1.26110000
O	12.34155588	21.57543214	1.26110000
O	27.58904776	11.08838607	1.26110000
O	27.58904776	21.57543214	1.26110000
O	16.15343588	11.08838607	1.26110000
O	16.15343588	21.57543214	1.26110000
O	19.96530588	11.08838607	1.26110000
O	19.96530588	21.57543214	1.26110000
O	10.43561588	16.33190607	1.26111000
O	10.43561588	26.81895214	1.26111000
O	25.68310776	16.33190607	1.26111000
O	25.68310776	26.81895214	1.26111000
O	14.24749588	16.33190607	1.26111000
O	14.24749588	26.81895214	1.26111000
O	29.49498776	16.33190607	1.26111000
O	29.49498776	26.81895214	1.26111000
O	18.05936588	16.33190607	1.26111000
O	18.05936588	26.81895214	1.26111000
O	10.43561588	12.55516607	1.83340000
O	10.43561588	23.04221214	1.83340000
O	25.68310776	12.55516607	1.83340000
O	25.68310776	23.04221214	1.83340000
O	14.24749588	12.55516607	1.83340000
O	14.24749588	23.04221214	1.83340000
O	29.49498776	12.55516607	1.83340000
O	29.49498776	23.04221214	1.83340000
O	18.05936588	12.55516607	1.83340000
O	18.05936588	23.04221214	1.83340000
O	12.34155588	17.79868607	1.83340000
O	12.34155588	28.28573214	1.83340000
O	27.58904776	17.79868607	1.83340000
O	27.58904776	28.28573214	1.83340000
O	16.15343588	17.79868607	1.83340000
O	16.15343588	28.28573214	1.83340000
O	19.96530588	17.79868607	1.83340000
O	19.96530588	28.28573214	1.83340000
O	12.34155588	14.83053607	2.72118000
O	12.34155588	25.31758214	2.72118000
O	27.58904776	14.83053607	2.72118000
O	27.58904776	25.31758214	2.72118000
O	16.15343588	14.83053607	2.72118000
O	16.15343588	25.31758214	2.72118000
O	19.96530588	14.83053607	2.72118000
O	19.96530588	25.31758214	2.72118000
O	10.43561588	20.07405607	2.72118000
O	10.43561588	30.56110214	2.72118000
O	25.68310776	20.07405607	2.72118000
O	25.68310776	30.56110214	2.72118000
O	14.24749588	20.07405607	2.72118000
O	14.24749588	30.56110214	2.72118000
O	29.49498776	20.07405607	2.72118000
O	29.49498776	30.56110214	2.72118000
O	18.05936588	20.07405607	2.72118000
O	18.05936588	30.56110214	2.72118000
Ti	6.65602612	9.20382798	4.62622795
Ti	6.63202029	6.36396784	5.53508121
Ti	2.76903755	9.26426766	4.74911392
Ti	0.90408509	3.86238937	4.68190864
Ti	4.69115335	4.02991592	4.64725719
Ti	0.95747496	0.93468909	5.37970780
Ti	4.69411795	1.02571725	5.57618975
Ti	2.80370612	6.33172534	5.56251974
O	6.69026712	7.39646441	3.87364102
O	6.66065623	4.44786243	4.83010944
O	6.58725632	0.64560230	5.80789561
O	6.60615306	8.07648627	6.21612748
O	2.66944939	7.39017544	3.96276825
O	1.01826763	2.12272015	3.85578056
O	4.71542329	2.15989434	3.99600406
O	0.88617289	9.55604063	4.99419027
O	4.70770822	9.78130907	4.77539945
O	2.76120139	4.46737777	4.82742590
O	2.82818793	0.38083233	5.80378847
O	0.92637016	5.81875329	5.92777810
O	4.73890952	5.90858583	5.59273662
O	0.95558759	2.77436706	6.24535630
O	4.73250433	2.77425288	6.37432428
O	2.80549990	8.08273342	6.47782738
Ti	21.91793802	9.28412914	4.72307353
Ti	8.53535145	3.99353571	4.86143404
Ti	23.81195863	4.08337257	4.78126884
Ti	8.50138893	1.10577431	5.44181737
Ti	23.76529150	1.18789910	5.57075003
Ti	21.83623158	6.37568413	5.47438106
Ti	10.30611345	9.29251531	4.84162247
Ti	25.79061671	9.14913612	4.74750140
Ti	14.15441912	9.30013612	4.75067754
Ti	29.44943378	9.25282234	4.74115896
Ti	18.02422610	9.36158943	4.70973378
Ti	12.37305327	3.95626969	4.86045107
Ti	27.64490792	4.00854688	4.80707647
Ti	16.20130894	3.94337422	4.71483682
Ti	20.05082481	3.99695345	4.70009385
Ti	12.34536804	1.16163388	5.57741933
Ti	27.66304284	1.11243415	5.52545441
Ti	16.04636916	1.14903106	5.75619291
Ti	19.89833348	1.13592401	5.55880145
Ti	10.38076307	6.39211239	5.61588308
Ti	25.80483487	6.27928792	5.49796635
Ti	14.29431282	6.35674900	5.41485006
Ti	29.61676165	6.39353833	5.55557074
Ti	18.14518303	6.39971794	5.49401943
O	21.86694488	7.38240598	3.96490363
O	8.50457058	2.19941737	3.93795170
O	23.71858368	2.14753755	3.97297010
O	8.48589185	9.67119946	4.70202616
O	23.88972323	9.56525259	4.85480384
O	21.86237819	4.47359953	4.74794207
O	21.82502352	0.62644229	5.68838355
O	8.55718073	5.82663757	5.75475138
O	23.89338210	5.83221844	5.76397091
O	8.44868208	2.85614901	6.39495649
O	23.99128940	2.98877951	6.47904046
O	21.75075069	8.06833258	6.31457019
O	10.43968116	7.41317971	3.97965569
O	25.75891945	7.20007464	3.93472889
O	14.39171602	7.46882504	3.92304053
O	29.57706356	7.43722330	3.86460914
O	18.03734601	7.40109729	3.93223183
O	12.36010682	2.16442335	3.98050926
O	27.50426896	2.19830122	3.96762118
O	16.10949747	2.13830979	4.02050662
O	19.91435126	2.07041386	3.88115264
O	12.32810215	9.68960080	4.74781879
O	27.58866363	9.75892865	4.65982275
O	16.17337430	9.79344571	4.79525379
O	19.94281028	9.65711749	4.68223485
O	10.47326610	4.54338381	4.84510807
O	25.74360436	4.31925724	4.96186316
O	14.29907045	4.50302249	4.63278045
O	29.55018386	4.52524061	4.84557860
O	18.06065556	4.49579963	4.84908428
O	10.50076883	0.74137146	5.81751615
O	25.58865273	0.56988344	5.86492070
O	14.23140424	0.94381153	6.38697675
O	29.59105354	0.60904576	5.63597966
O	18.05232074	0.64056543	5.73630378
O	12.38091069	5.85121056	5.73929563
O	27.67973419	5.82937094	5.75115687
O	16.11936384	5.92540793	5.72840500
O	20.02153611	5.83042761	5.74445333
O	12.36985657	2.81394114	6.48787193
O	27.78009287	2.97090701	6.34722016
O	16.35701308	2.92445297	6.36198224
O	19.99208798	2.98604290	6.28938271
O	10.31615259	8.12274351	6.41114509
O	25.77041915	8.01511648	6.33941500
O	14.36331118	8.14657670	6.28520397
O	29.43763646	8.17020105	6.30849873
O	18.12185133	8.16160148	6.37544991
Ti	6.66862572	19.72802304	4.78866684
Ti	6.66468416	30.23976384	4.71821032
Ti	6.48815868	16.83063924	5.51586902
Ti	6.48823001	27.30548013	5.44878026
Ti	2.87222553	19.75177778	4.62559674
Ti	2.90268802	30.18432443	4.63397441
Ti	0.86036065	14.29532309	4.64829673
Ti	0.95654805	24.83259572	4.76601215
Ti	4.56473012	14.56289865	4.79140228
Ti	4.70152522	24.94338781	4.79173195
Ti	0.92509759	11.47893942	5.47827992
Ti	0.95228519	21.94189234	5.51170424
Ti	4.67622926	11.64289975	5.48401769
Ti	4.83756869	22.03186075	5.53284553
Ti	2.67875165	16.88502659	5.51662177
Ti	2.80902623	27.24496679	5.46727489
O	6.39990090	17.80153793	3.89953422
O	6.64468736	28.36584958	3.91779041
O	6.44710240	14.89462410	4.68864337
O	6.56940718	25.43808670	4.81128992
O	6.66483062	11.06242612	5.71275387
O	6.67362736	21.58365281	5.71100375
O	6.83838979	18.48055491	6.27077040
O	6.44276860	29.07157605	6.30615343
O	2.81398850	17.96106705	3.90887031
O	2.79312042	28.25450477	3.85084856
O	1.09054536	12.47274544	3.88052668
O	0.97841354	23.04113290	3.94349244
O	4.51984742	12.69277754	4.03774804
O	4.63621553	23.13391001	3.97437456
O	0.94151588	20.06145515	4.84945618
O	0.91163351	30.50682591	4.73932308
O	4.82358704	20.16641233	4.81384075
O	4.76080464	30.69915342	4.63990341
O	2.69230406	15.10996736	4.81680133
O	2.78379675	25.41751474	4.82921655
O	2.81842668	11.02324521	5.76577804
O	2.92645893	21.51413902	5.76386706
O	0.92457004	16.74358647	6.13978559
O	0.89416212	26.85380808	5.83056122
O	4.63900467	16.29531379	5.90998850
O	4.69722041	26.74753716	5.83846151
O	0.88442961	13.20854745	6.31565266
O	1.00739873	23.70416632	6.31267045
O	4.54187328	13.33210086	6.46645992
O	4.89689599	23.82491454	6.35560255
O	2.86262862	18.68276599	6.33367154
O	2.80755718	29.02422265	6.24256453
Ti	21.92250953	19.76463689	4.82249296
Ti	21.87578952	30.19008391	4.71086854
Ti	8.33867989	14.48012669	4.82193422
Ti	8.43053979	24.91138263	4.88170859
Ti	23.78844402	14.38621000	4.79561922
Ti	23.77136989	25.01249007	4.82524166
Ti	8.49569885	11.56559361	5.47183019
Ti	8.50559411	22.02984930	5.50634878
Ti	23.90825452	11.46357155	5.41022827
Ti	23.79451246	22.08428254	5.56916439
Ti	21.86905494	16.79748671	5.49235160
Ti	21.91616764	27.32851163	5.54645072
Ti	10.38294087	19.69123426	4.69789653
Ti	10.55227386	30.17940719	4.83344088
Ti	25.77073810	19.67118661	4.72460460
Ti	25.64647029	30.24879568	4.85267733
Ti	14.25017256	19.73346028	4.69951156
Ti	14.26446286	30.08450797	4.64298145
Ti	29.54682077	19.73799136	4.66269150
Ti	29.44274805	30.20171949	4.87506601
Ti	18.08347994	19.73715129	4.60816979
Ti	18.01257020	30.25703033	4.75367582
Ti	12.16107939	14.47284253	4.61903028
Ti	12.27348550	25.05088353	4.73433512
Ti	27.59407732	14.48713271	4.66272975
Ti	27.66247800	25.02058277	4.73826925
Ti	16.17737119	14.57211916	4.68903923
Ti	16.18688140	24.95525166	4.85315600
Ti	20.06987300	14.46187009	4.79616054
Ti	19.92242311	24.95617730	4.64674138
Ti	12.28229542	11.55494181	5.43050560
Ti	12.32307166	21.93809785	5.48385886
Ti	27.59030413	11.64184693	5.57943398
Ti	27.57146779	22.14664795	5.60881826
Ti	16.21449620	11.62782509	5.46173801
Ti	16.12137273	21.99236085	5.40101053
Ti	19.95281830	11.54756826	5.46594718
Ti	19.95558784	22.05971633	5.57215259
Ti	10.40202726	16.77060764	5.45688394
Ti	10.39754760	27.26245894	5.50777828
Ti	25.69822582	16.79937063	5.55355451
Ti	25.72120365	27.32226148	5.61761466
Ti	14.14318968	16.72244599	5.72969419
Ti	14.23417154	27.30066983	5.62278441
Ti	29.63261106	16.87897178	5.50923086
Ti	29.61770957	27.24303752	5.40678501
Ti	17.95138213	16.84948685	5.45740161
Ti	18.05688686	27.27996076	5.56377562
O	21.89991452	17.88857163	3.96162465
O	21.86641800	28.38354124	3.98668306
O	8.53397521	12.67528036	3.93518526
O	8.40539174	23.04668176	3.93450748
O	23.77624388	12.53152568	3.82421150
O	23.80957722	23.06020009	4.00773043
O	8.50792274	20.12319309	4.74857361
O	8.61848786	30.63417144	4.85446156
O	23.82588964	20.22451798	4.55584208
O	23.79406046	30.72050929	4.68587769
O	21.92669244	14.94517092	4.83335693
O	21.89094844	25.31546677	4.88563117
O	21.88056617	11.11219544	5.58032040
O	21.96224082	21.55134814	5.73483981
O	8.46816452	16.21989338	5.77439364
O	8.49321909	26.86438615	5.64758804
O	23.79231163	16.21287539	5.73660933
O	23.85105369	26.85043738	5.67033672
O	8.30749927	13.23375616	6.37753875
O	8.41193942	23.82795989	6.43129148
O	24.00761544	13.11990805	6.38156098
O	23.79388850	23.78121961	6.37730430
O	21.91771240	18.50972436	6.35076482
O	21.83348052	29.10333821	6.35481957
O	10.49406806	17.85791739	3.95008156
O	10.59918101	28.33292526	4.03206339
O	25.62926000	17.72950625	3.92570932
O	25.62602865	28.39006838	4.07187570
O	14.22527056	17.83650073	3.95929205
O	14.35468474	28.30976894	3.88219775
O	29.70650108	17.87709503	3.92228818
O	29.41707814	28.39506302	3.95281415
O	18.02664939	17.79043998	3.95685451
O	17.94219733	28.39378928	3.91185428
O	12.41769534	12.57432813	3.87781458
O	12.45384246	23.09054100	3.95177011
O	27.64184320	12.58296406	3.93300277
O	27.55922710	23.16136290	4.01481962
O	16.23088791	12.67632932	3.90653327
O	16.28145250	23.15485872	3.91353698
O	19.96525599	12.58819043	3.92071913
O	19.78826120	23.08621656	3.95746981
O	12.32777916	20.08346755	4.76599067
O	12.46734404	30.67324332	4.94858673
O	27.63785391	20.18185893	4.66552384
O	27.59215470	30.68103559	4.89977065
O	16.22380562	20.04013052	4.77374800
O	16.05834068	30.72813727	4.99537034
O	20.02314889	20.13119255	4.88783351
O	19.85019917	30.75146046	4.81828605
O	10.29964003	14.77814491	4.90241093
O	10.40161075	25.29293568	4.83302221
O	25.66159914	14.91352213	4.88044733
O	25.74216989	25.43147548	4.78818694
O	14.17626214	14.97662558	4.73669598
O	14.26909735	25.37759430	5.01175566
O	29.54156575	14.95626732	4.97785636
O	29.54054473	25.24938939	4.75789388
O	18.07623199	14.83442361	4.69648640
O	18.08908431	25.39133238	4.86869617
O	10.31815833	11.11785893	5.70070877
O	10.45973038	21.46432750	5.86595816
O	25.74956970	10.96418975	5.87007185
O	25.79742674	21.38470135	5.90143474
O	14.25701531	11.07957639	5.71569937
O	14.27421013	21.53361721	5.65937713
O	29.46082169	11.14136394	5.77717791
O	29.44416023	21.64992995	5.75553447
O	18.11629879	11.18273954	5.79439379
O	18.12684058	21.58657714	5.70910347
O	12.20594245	16.16878931	5.50393383
O	12.33932722	26.87525359	5.70926713
O	27.68290652	16.43500584	5.48857033
O	27.71834441	26.87189864	5.69254527
O	16.10465036	16.41666572	5.66595113
O	16.21735149	26.77627486	5.93740652
O	19.93429364	16.27711162	5.94162554
O	20.06580017	26.82360888	5.71420169
O	12.15028804	13.29335525	6.22310213
O	12.22047314	23.81320355	6.24253610
O	27.49450719	13.45781712	6.40546660
O	27.59062852	23.87966912	6.41307296
O	16.19616949	13.43524812	6.41784116
O	15.93869144	23.63416129	6.35426892
O	20.10717110	13.20575949	6.36075374
O	20.13645728	23.77999445	6.37603236
O	10.40479980	18.40509652	6.45691943
O	10.57364529	28.97829731	6.43620775
O	25.60785311	18.58386717	6.21259342
O	25.50198381	29.08276658	6.57790639
O	14.17502126	18.67394366	6.29533119
O	14.18239361	29.02569522	6.40167842
O	29.41957030	18.65852946	6.34905175
O	29.45993310	29.01299781	6.33866031
O	18.16356617	18.55852386	6.36041400
O	18.18936329	28.99459002	6.32044853
H	12.71818785	14.34825001	7.93208039
H	13.24409346	15.01458492	11.06520340
H	14.89036705	18.11142023	8.64862477
O	14.06419708	16.11214787	7.50210037
O	12.86080136	14.78383933	8.79410071
C	13.63738925	15.75128167	8.69942981
C	14.04156573	16.57534544	9.85454506
C	13.63329226	16.06035430	11.08358707
C	14.60503125	17.84092344	9.71721529
N	13.01661462	19.55235308	15.44876427
N	15.87425618	21.63598437	17.30110769
N	15.90204519	20.00610113	14.98357819
N	13.03551369	21.23579167	17.78244245
C	21.72116090	20.30932384	16.35924347
C	14.01787712	24.79868708	22.07974504
C	7.23622770	20.52227264	16.72353380
C	19.38383387	20.97955675	16.05954633
C	14.32641236	24.08943134	19.80116969
C	9.61076811	19.85411644	17.15869716
C	21.15309573	22.42944341	15.21278903
C	13.60079263	26.36528402	20.30893555
C	7.67781967	18.83127920	18.38307386
C	14.27056707	18.91208273	13.35485170
C	17.88078011	20.74705845	16.18375746
C	14.41276264	23.06246075	18.77949077
C	11.07307230	19.94733232	16.97488263
C	15.55167926	19.33324456	13.80696641
C	17.22645091	20.09395252	15.11610636
C	13.19872706	22.32316206	18.59320514
C	11.78159102	20.72146615	17.92658366
C	16.88435411	19.06830390	13.14163135
C	17.88422710	19.40956511	14.03227888
C	12.03885019	22.32380376	19.51461344
C	11.14282262	21.43778879	19.04342472
C	13.11121542	18.97162901	14.16626301
C	17.25331397	21.55630149	17.14069414
C	15.66284136	22.59588712	18.33665888
C	11.67179516	19.49106791	15.79417499
C	11.84509069	18.32751193	13.85396613
C	17.90978868	22.48154568	18.04391881
C	16.93992556	23.20076543	18.68496540
C	10.96653642	18.62559540	14.82214093
H	11.62581329	17.81289933	12.90672010
H	18.97884052	22.71239431	17.99965836
H	17.09160674	23.96345406	19.48319954
H	9.94714862	18.28002543	15.00791052
H	16.99824360	18.57117467	12.15811511
H	18.98413989	19.27897105	13.88627560
H	12.00345032	23.06538767	20.29639734
H	10.23168860	21.16208084	19.54979035
H	21.40310848	23.45539305	14.88220948
H	13.32127098	27.38202825	19.94986332
H	7.30993882	18.02890217	19.05308294
H	22.55395614	19.73968821	16.70310747
H	14.02789128	24.65707124	23.12538132
H	6.53712383	21.22756994	16.21096189
H	15.20666888	20.36801821	15.68423407
H	13.74449861	20.96789092	17.05189239
C	23.54915490	21.85413783	15.69907654
H	23.87888946	22.39501042	16.64877128
H	23.73930523	22.46920691	14.85009270
H	24.14226806	20.96526170	15.59312817
C	19.78664503	18.68666864	17.02068809
H	18.82687662	18.87243980	17.53652477
H	20.48733127	18.31137205	17.78594413
H	19.74315008	17.97371051	16.19829357
C	18.85412536	23.17061824	14.84521780
H	17.80466921	22.92604191	14.93825668
H	19.09914295	23.43100274	13.77075646
H	19.04506956	24.19507934	15.28371480
C	9.95731552	18.05263649	18.86471471
H	9.36735531	17.40109928	19.50613894
H	10.61258472	18.56796190	19.57759787
H	10.59688511	17.45565727	18.18256903
C	9.12896271	21.47254833	15.37425362
H	10.20915902	21.49188495	15.29309287
H	8.76572368	22.49435887	15.38246246
H	8.93206192	21.01406585	14.39438900
C	5.26627768	19.44162643	17.90738366
H	5.08880847	19.45268070	19.00210178
H	5.02824514	18.48309529	17.49851836
H	4.62672389	20.33400418	17.58409277
C	14.15921650	25.87952260	17.98430022
H	14.29957367	25.06325403	17.24324759
H	15.15445564	26.39332184	17.94130557
H	13.42399138	26.55461281	17.65786559
C	14.92682957	22.43686436	21.62439721
H	14.57913469	22.10193024	22.57884412
H	16.00942133	22.38962538	21.67054697
H	14.68581586	21.66323454	20.88756869
C	13.46950237	27.18675602	22.66337293
H	12.78355155	26.87674378	23.45134681
H	12.96280697	28.05439232	22.16279478
H	14.44679804	27.56131901	22.98758369
C	22.10102757	21.53273395	15.75791177
C	20.32693651	19.97266417	16.46784276
C	19.79010187	22.16418914	15.36810601
C	13.95997409	25.37935417	19.32661651
C	14.37670565	23.78715478	21.17249629
C	13.65707344	26.10727473	21.65714428
C	9.06659785	18.99613765	18.15184636
C	8.66518267	20.64815403	16.49277741
C	6.75989915	19.63515289	17.66807078
H	13.71754680	16.47430442	13.30884263
H	15.08075416	19.67428199	10.78241749
C	14.28904241	18.13015128	12.08666524
C	13.88945667	16.78495254	12.27620152
C	14.66622691	18.64971074	10.81774740

Ti O H C N 0
6-31G*
****

