%chk=f00016116.chk
%mem=24GB
%nproc=12
#p b3lyp/6-31G*

title

0 1
Ti	2.81187400	0.19704000	1.10336000
Ti	0.90594400	5.44057000	1.10336000
Ti	4.71781400	5.44057000	1.10336000
Ti	0.90594400	2.47241000	1.99114000
Ti	4.71781400	2.47241000	1.99114000
Ti	2.81187400	7.71594000	1.99115000
O	2.81187400	8.81302000	0.37332000
O	0.90594400	3.56949000	0.37332000
O	4.71781400	3.56949000	0.37332000
O	0.90594400	0.60134000	1.26110000
O	4.71781400	0.60134000	1.26110000
O	2.81187400	5.84486000	1.26111000
O	2.81187400	2.06812000	1.83340000
O	0.90594400	7.31164000	1.83340000
O	4.71781400	7.31164000	1.83340000
O	0.90594400	4.34349000	2.72118000
O	4.71781400	4.34349000	2.72118000
O	2.81187400	9.58701000	2.72118000
Ti	6.62374588	0.19704000	1.10336000
Ti	21.87123776	0.19704000	1.10336000
Ti	8.52968588	5.44057000	1.10336000
Ti	23.77717776	5.44057000	1.10336000
Ti	8.52968588	2.47241000	1.99114000
Ti	23.77717776	2.47241000	1.99114000
Ti	6.62374588	7.71594000	1.99115000
Ti	21.87123776	7.71594000	1.99115000
Ti	10.43561588	0.19704000	1.10336000
Ti	25.68310776	0.19704000	1.10336000
Ti	14.24749588	0.19704000	1.10336000
Ti	29.49498776	0.19704000	1.10336000
Ti	18.05936588	0.19704000	1.10336000
Ti	12.34155588	5.44057000	1.10336000
Ti	27.58904776	5.44057000	1.10336000
Ti	16.15343588	5.44057000	1.10336000
Ti	19.96530588	5.44057000	1.10336000
Ti	12.34155588	2.47241000	1.99114000
Ti	27.58904776	2.47241000	1.99114000
Ti	16.15343588	2.47241000	1.99114000
Ti	19.96530588	2.47241000	1.99114000
Ti	10.43561588	7.71594000	1.99115000
Ti	25.68310776	7.71594000	1.99115000
Ti	14.24749588	7.71594000	1.99115000
Ti	29.49498776	7.71594000	1.99115000
Ti	18.05936588	7.71594000	1.99115000
O	6.62374588	8.81302000	0.37332000
O	21.87123776	8.81302000	0.37332000
O	8.52968588	3.56949000	0.37332000
O	23.77717776	3.56949000	0.37332000
O	8.52968588	0.60134000	1.26110000
O	23.77717776	0.60134000	1.26110000
O	6.62374588	5.84486000	1.26111000
O	21.87123776	5.84486000	1.26111000
O	6.62374588	2.06812000	1.83340000
O	21.87123776	2.06812000	1.83340000
O	8.52968588	7.31164000	1.83340000
O	23.77717776	7.31164000	1.83340000
O	8.52968588	4.34349000	2.72118000
O	23.77717776	4.34349000	2.72118000
O	6.62374588	9.58701000	2.72118000
O	21.87123776	9.58701000	2.72118000
O	10.43561588	8.81302000	0.37332000
O	25.68310776	8.81302000	0.37332000
O	14.24749588	8.81302000	0.37332000
O	29.49498776	8.81302000	0.37332000
O	18.05936588	8.81302000	0.37332000
O	12.34155588	3.56949000	0.37332000
O	27.58904776	3.56949000	0.37332000
O	16.15343588	3.56949000	0.37332000
O	19.96530588	3.56949000	0.37332000
O	12.34155588	0.60134000	1.26110000
O	27.58904776	0.60134000	1.26110000
O	16.15343588	0.60134000	1.26110000
O	19.96530588	0.60134000	1.26110000
O	10.43561588	5.84486000	1.26111000
O	25.68310776	5.84486000	1.26111000
O	14.24749588	5.84486000	1.26111000
O	29.49498776	5.84486000	1.26111000
O	18.05936588	5.84486000	1.26111000
O	10.43561588	2.06812000	1.83340000
O	25.68310776	2.06812000	1.83340000
O	14.24749588	2.06812000	1.83340000
O	29.49498776	2.06812000	1.83340000
O	18.05936588	2.06812000	1.83340000
O	12.34155588	7.31164000	1.83340000
O	27.58904776	7.31164000	1.83340000
O	16.15343588	7.31164000	1.83340000
O	19.96530588	7.31164000	1.83340000
O	12.34155588	4.34349000	2.72118000
O	27.58904776	4.34349000	2.72118000
O	16.15343588	4.34349000	2.72118000
O	19.96530588	4.34349000	2.72118000
O	10.43561588	9.58701000	2.72118000
O	25.68310776	9.58701000	2.72118000
O	14.24749588	9.58701000	2.72118000
O	29.49498776	9.58701000	2.72118000
O	18.05936588	9.58701000	2.72118000
Ti	2.81187400	10.68408607	1.10336000
Ti	2.81187400	21.17113214	1.10336000
Ti	0.90594400	15.92761607	1.10336000
Ti	0.90594400	26.41466214	1.10336000
Ti	4.71781400	15.92761607	1.10336000
Ti	4.71781400	26.41466214	1.10336000
Ti	0.90594400	12.95945607	1.99114000
Ti	0.90594400	23.44650214	1.99114000
Ti	4.71781400	12.95945607	1.99114000
Ti	4.71781400	23.44650214	1.99114000
Ti	2.81187400	18.20298607	1.99115000
Ti	2.81187400	28.69003214	1.99115000
O	2.81187400	19.30006607	0.37332000
O	2.81187400	29.78711214	0.37332000
O	0.90594400	14.05653607	0.37332000
O	0.90594400	24.54358214	0.37332000
O	4.71781400	14.05653607	0.37332000
O	4.71781400	24.54358214	0.37332000
O	0.90594400	11.08838607	1.26110000
O	0.90594400	21.57543214	1.26110000
O	4.71781400	11.08838607	1.26110000
O	4.71781400	21.57543214	1.26110000
O	2.81187400	16.33190607	1.26111000
O	2.81187400	26.81895214	1.26111000
O	2.81187400	12.55516607	1.83340000
O	2.81187400	23.04221214	1.83340000
O	0.90594400	17.79868607	1.83340000
O	0.90594400	28.28573214	1.83340000
O	4.71781400	17.79868607	1.83340000
O	4.71781400	28.28573214	1.83340000
O	0.90594400	14.83053607	2.72118000
O	0.90594400	25.31758214	2.72118000
O	4.71781400	14.83053607	2.72118000
O	4.71781400	25.31758214	2.72118000
O	2.81187400	20.07405607	2.72118000
O	2.81187400	30.56110214	2.72118000
Ti	6.62374588	10.68408607	1.10336000
Ti	6.62374588	21.17113214	1.10336000
Ti	21.87123776	10.68408607	1.10336000
Ti	21.87123776	21.17113214	1.10336000
Ti	8.52968588	15.92761607	1.10336000
Ti	8.52968588	26.41466214	1.10336000
Ti	23.77717776	15.92761607	1.10336000
Ti	23.77717776	26.41466214	1.10336000
Ti	8.52968588	12.95945607	1.99114000
Ti	8.52968588	23.44650214	1.99114000
Ti	23.77717776	12.95945607	1.99114000
Ti	23.77717776	23.44650214	1.99114000
Ti	6.62374588	18.20298607	1.99115000
Ti	6.62374588	28.69003214	1.99115000
Ti	21.87123776	18.20298607	1.99115000
Ti	21.87123776	28.69003214	1.99115000
Ti	10.43561588	10.68408607	1.10336000
Ti	10.43561588	21.17113214	1.10336000
Ti	25.68310776	10.68408607	1.10336000
Ti	25.68310776	21.17113214	1.10336000
Ti	14.24749588	10.68408607	1.10336000
Ti	14.24749588	21.17113214	1.10336000
Ti	29.49498776	10.68408607	1.10336000
Ti	29.49498776	21.17113214	1.10336000
Ti	18.05936588	10.68408607	1.10336000
Ti	18.05936588	21.17113214	1.10336000
Ti	12.34155588	15.92761607	1.10336000
Ti	12.34155588	26.41466214	1.10336000
Ti	27.58904776	15.92761607	1.10336000
Ti	27.58904776	26.41466214	1.10336000
Ti	16.15343588	15.92761607	1.10336000
Ti	16.15343588	26.41466214	1.10336000
Ti	19.96530588	15.92761607	1.10336000
Ti	19.96530588	26.41466214	1.10336000
Ti	12.34155588	12.95945607	1.99114000
Ti	12.34155588	23.44650214	1.99114000
Ti	27.58904776	12.95945607	1.99114000
Ti	27.58904776	23.44650214	1.99114000
Ti	16.15343588	12.95945607	1.99114000
Ti	16.15343588	23.44650214	1.99114000
Ti	19.96530588	12.95945607	1.99114000
Ti	19.96530588	23.44650214	1.99114000
Ti	10.43561588	18.20298607	1.99115000
Ti	10.43561588	28.69003214	1.99115000
Ti	25.68310776	18.20298607	1.99115000
Ti	25.68310776	28.69003214	1.99115000
Ti	14.24749588	18.20298607	1.99115000
Ti	14.24749588	28.69003214	1.99115000
Ti	29.49498776	18.20298607	1.99115000
Ti	29.49498776	28.69003214	1.99115000
Ti	18.05936588	18.20298607	1.99115000
Ti	18.05936588	28.69003214	1.99115000
O	6.62374588	19.30006607	0.37332000
O	6.62374588	29.78711214	0.37332000
O	21.87123776	19.30006607	0.37332000
O	21.87123776	29.78711214	0.37332000
O	8.52968588	14.05653607	0.37332000
O	8.52968588	24.54358214	0.37332000
O	23.77717776	14.05653607	0.37332000
O	23.77717776	24.54358214	0.37332000
O	8.52968588	11.08838607	1.26110000
O	8.52968588	21.57543214	1.26110000
O	23.77717776	11.08838607	1.26110000
O	23.77717776	21.57543214	1.26110000
O	6.62374588	16.33190607	1.26111000
O	6.62374588	26.81895214	1.26111000
O	21.87123776	16.33190607	1.26111000
O	21.87123776	26.81895214	1.26111000
O	6.62374588	12.55516607	1.83340000
O	6.62374588	23.04221214	1.83340000
O	21.87123776	12.55516607	1.83340000
O	21.87123776	23.04221214	1.83340000
O	8.52968588	17.79868607	1.83340000
O	8.52968588	28.28573214	1.83340000
O	23.77717776	17.79868607	1.83340000
O	23.77717776	28.28573214	1.83340000
O	8.52968588	14.83053607	2.72118000
O	8.52968588	25.31758214	2.72118000
O	23.77717776	14.83053607	2.72118000
O	23.77717776	25.31758214	2.72118000
O	6.62374588	20.07405607	2.72118000
O	6.62374588	30.56110214	2.72118000
O	21.87123776	20.07405607	2.72118000
O	21.87123776	30.56110214	2.72118000
O	10.43561588	19.30006607	0.37332000
O	10.43561588	29.78711214	0.37332000
O	25.68310776	19.30006607	0.37332000
O	25.68310776	29.78711214	0.37332000
O	14.24749588	19.30006607	0.37332000
O	14.24749588	29.78711214	0.37332000
O	29.49498776	19.30006607	0.37332000
O	29.49498776	29.78711214	0.37332000
O	18.05936588	19.30006607	0.37332000
O	18.05936588	29.78711214	0.37332000
O	12.34155588	14.05653607	0.37332000
O	12.34155588	24.54358214	0.37332000
O	27.58904776	14.05653607	0.37332000
O	27.58904776	24.54358214	0.37332000
O	16.15343588	14.05653607	0.37332000
O	16.15343588	24.54358214	0.37332000
O	19.96530588	14.05653607	0.37332000
O	19.96530588	24.54358214	0.37332000
O	12.34155588	11.08838607	1.26110000
O	12.34155588	21.57543214	1.26110000
O	27.58904776	11.08838607	1.26110000
O	27.58904776	21.57543214	1.26110000
O	16.15343588	11.08838607	1.26110000
O	16.15343588	21.57543214	1.26110000
O	19.96530588	11.08838607	1.26110000
O	19.96530588	21.57543214	1.26110000
O	10.43561588	16.33190607	1.26111000
O	10.43561588	26.81895214	1.26111000
O	25.68310776	16.33190607	1.26111000
O	25.68310776	26.81895214	1.26111000
O	14.24749588	16.33190607	1.26111000
O	14.24749588	26.81895214	1.26111000
O	29.49498776	16.33190607	1.26111000
O	29.49498776	26.81895214	1.26111000
O	18.05936588	16.33190607	1.26111000
O	18.05936588	26.81895214	1.26111000
O	10.43561588	12.55516607	1.83340000
O	10.43561588	23.04221214	1.83340000
O	25.68310776	12.55516607	1.83340000
O	25.68310776	23.04221214	1.83340000
O	14.24749588	12.55516607	1.83340000
O	14.24749588	23.04221214	1.83340000
O	29.49498776	12.55516607	1.83340000
O	29.49498776	23.04221214	1.83340000
O	18.05936588	12.55516607	1.83340000
O	18.05936588	23.04221214	1.83340000
O	12.34155588	17.79868607	1.83340000
O	12.34155588	28.28573214	1.83340000
O	27.58904776	17.79868607	1.83340000
O	27.58904776	28.28573214	1.83340000
O	16.15343588	17.79868607	1.83340000
O	16.15343588	28.28573214	1.83340000
O	19.96530588	17.79868607	1.83340000
O	19.96530588	28.28573214	1.83340000
O	12.34155588	14.83053607	2.72118000
O	12.34155588	25.31758214	2.72118000
O	27.58904776	14.83053607	2.72118000
O	27.58904776	25.31758214	2.72118000
O	16.15343588	14.83053607	2.72118000
O	16.15343588	25.31758214	2.72118000
O	19.96530588	14.83053607	2.72118000
O	19.96530588	25.31758214	2.72118000
O	10.43561588	20.07405607	2.72118000
O	10.43561588	30.56110214	2.72118000
O	25.68310776	20.07405607	2.72118000
O	25.68310776	30.56110214	2.72118000
O	14.24749588	20.07405607	2.72118000
O	14.24749588	30.56110214	2.72118000
O	29.49498776	20.07405607	2.72118000
O	29.49498776	30.56110214	2.72118000
O	18.05936588	20.07405607	2.72118000
O	18.05936588	30.56110214	2.72118000
Ti	6.68633172	9.15777251	4.82159167
Ti	6.69146630	6.28307089	5.54518896
Ti	2.85450523	9.13415170	4.80947484
Ti	0.95148653	4.08848498	4.73765666
Ti	4.68714265	3.88845025	4.79453278
Ti	0.84596097	1.12733216	5.56696264
Ti	4.68615772	0.97383932	5.43239991
Ti	2.84097374	6.27261861	5.56907569
O	6.63214765	7.19920466	3.96958990
O	6.64528382	4.39233425	4.88120251
O	6.55487350	0.50790648	5.89750401
O	6.53683360	8.07017832	6.38693467
O	2.96474440	7.30908004	3.91892719
O	0.84351756	2.11716890	3.97249522
O	4.60138655	2.01257809	3.84045099
O	0.89276688	9.52434587	4.93634725
O	4.75907329	9.55171180	4.83401650
O	2.84262872	4.31635743	4.85072774
O	2.77223588	0.69886660	5.76481525
O	0.91343595	5.78402285	5.65015158
O	4.83089500	5.62684641	5.80763386
O	0.96440247	2.88754682	6.31601929
O	4.71102775	2.68784856	6.27821098
O	2.77474393	7.95261177	6.43586942
Ti	21.75913688	9.31458295	4.86965601
Ti	8.52275977	3.93451460	4.72920502
Ti	23.76170121	4.01045132	4.68137735
Ti	8.41678291	1.07667260	5.64564016
Ti	23.76542827	1.11576337	5.68206619
Ti	21.87010147	6.36507456	5.44510013
Ti	10.42317725	9.15523373	4.88563628
Ti	25.73160107	9.29992229	4.72116000
Ti	14.31873392	9.32935187	4.72445755
Ti	29.48007946	9.18533795	4.73085987
Ti	17.98659458	9.23337247	4.81510866
Ti	12.48589049	3.92163810	4.82002729
Ti	27.57412521	3.96738818	4.75148812
Ti	16.21305356	3.84498333	4.76688573
Ti	19.88518446	3.98881269	4.77752562
Ti	12.32116177	0.99561498	5.51652159
Ti	27.49557250	1.13512955	5.62453188
Ti	16.24591559	0.90738910	5.49674204
Ti	20.07323690	1.14871036	5.55798324
Ti	10.48753958	6.22304621	5.36080027
Ti	25.76385514	6.27143155	5.47368885
Ti	14.26922263	6.45742939	5.48447507
Ti	29.47459384	6.24608850	5.36395745
Ti	17.99131684	6.34249822	5.53865595
O	22.15641174	7.40541394	3.97094587
O	8.50358337	2.05437468	3.98891883
O	23.71596684	1.99261338	3.98668104
O	8.58719816	9.64160605	4.78442754
O	23.76054880	9.77177693	4.99199936
O	21.82637722	4.45382608	4.79968505
O	21.94808553	0.54220729	6.03502528
O	8.57934278	5.84332666	5.74165174
O	23.81547988	5.88953950	5.75028309
O	8.62617889	2.82764670	6.32415767
O	23.70713587	2.93388124	6.37864529
O	21.59280111	8.04978759	6.33418688
O	10.44426353	7.36158433	3.93721168
O	25.81925865	7.42044479	3.96226301
O	14.27999578	7.34745253	3.87487069
O	29.50890627	7.39621600	3.89488814
O	17.86465420	7.34692536	3.90276394
O	12.32958567	2.03835661	3.93971428
O	27.50036767	1.97267135	3.94838922
O	16.22336652	2.10569048	3.97155908
O	19.91816504	2.16194227	3.99172351
O	12.36837464	9.46965177	4.95363251
O	27.58871185	9.64867232	4.75984453
O	16.15456958	9.85773219	4.69745406
O	19.89964756	9.76019483	4.79797894
O	10.45239756	4.35625424	4.91203609
O	25.66325189	4.39153085	4.76423688
O	14.34763251	4.37593096	4.80455620
O	29.53576026	4.34530435	4.80758115
O	18.01071391	4.48287456	4.78551659
O	10.41230475	0.53696122	5.70767568
O	25.67806356	0.57652865	5.91771665
O	14.27583640	0.43410466	5.72137139
O	29.39826595	0.55727620	5.83349819
O	18.15282527	0.45180462	5.92371535
O	12.40951315	5.82753981	5.58768310
O	27.61323970	5.85335015	5.74622071
O	16.18640779	5.71729769	5.98503157
O	19.93402443	5.88475482	5.60608152
O	12.45033930	2.73312899	6.43957659
O	27.52987023	2.91504918	6.34727897
O	16.22717907	2.67986423	6.39068353
O	19.72460702	2.88819030	6.30103202
O	10.54493286	7.93261786	6.46130801
O	25.70406560	8.08152276	6.33860646
O	14.38485158	8.17408079	6.31329971
O	29.34162015	7.88474965	6.39305232
O	18.05435085	8.07582817	6.32518493
Ti	6.61645827	19.77393267	4.76973283
Ti	6.69514057	30.13817556	4.87089407
Ti	6.51919338	16.81322630	5.49512626
Ti	6.52888553	27.20772487	5.50522069
Ti	2.81633613	19.65203197	4.65748279
Ti	2.69428125	30.16319638	4.85041411
Ti	0.94806291	14.34296239	4.65452761
Ti	0.86000591	24.97333886	4.72723448
Ti	4.63449292	14.52201447	4.78842441
Ti	4.70239158	24.86194040	4.65511851
Ti	0.87817806	11.49807627	5.41075919
Ti	0.86612117	22.08607429	5.57930702
Ti	4.60272792	11.46130608	5.41363299
Ti	4.62197531	22.00412897	5.53956383
Ti	2.81314966	16.79474230	5.72554173
Ti	2.79881355	27.25139114	5.44715562
O	6.44674121	17.89305256	3.95377322
O	6.68339038	28.34679332	3.98725222
O	6.48071705	14.94009888	4.68169257
O	6.54887174	25.18249738	4.85121287
O	6.61950951	11.13344152	5.54681365
O	6.56698487	21.46712290	5.83704154
O	6.37262771	18.70419019	6.39955722
O	6.47291429	28.86910940	6.46851143
O	2.55856297	17.79933931	4.01035474
O	2.94125439	28.30511602	3.97008739
O	0.65355658	12.56056330	3.86411984
O	0.87314137	23.11846614	3.94738460
O	4.60872570	12.56803619	3.82557573
O	4.87290189	22.97340762	3.93330790
O	0.88319887	20.19873006	4.68293808
O	0.87492619	30.65841279	4.95529009
O	4.63802762	20.17399251	4.70039547
O	4.66845608	30.48643004	4.84190664
O	2.70690204	15.03839377	4.81302951
O	2.80432848	25.33589745	4.89348754
O	2.78301385	11.01799542	5.69863364
O	2.70205576	21.53484075	5.77881555
O	0.97042597	16.77609170	6.21977164
O	0.86876961	26.83988753	5.66032097
O	4.69140846	16.13995066	5.94345292
O	4.66321392	26.85456971	5.73219426
O	0.98053929	13.13935947	6.34119543
O	0.97489037	23.93916427	6.33858674
O	4.57638801	13.20507718	6.21193405
O	4.71357639	23.82004620	6.37503900
O	3.07949838	18.58886958	6.31148060
O	2.80372384	28.99778412	6.42738832
Ti	21.81766585	19.69558952	4.82662558
Ti	21.88260876	30.23795270	4.75040260
Ti	8.49043832	14.54971002	4.70455258
Ti	8.50259179	24.93377598	4.69977811
Ti	23.80546823	14.52132641	4.69902660
Ti	23.69795629	24.86115436	4.76305290
Ti	8.52426651	11.55547397	5.51266685
Ti	8.45157184	22.08356476	5.58736717
Ti	23.75350657	11.61861334	5.45261891
Ti	23.72473037	21.98008911	5.56237375
Ti	21.86303795	16.76901620	5.61922001
Ti	21.89836447	27.36915016	5.64252297
Ti	10.35480739	19.73073424	4.76034726
Ti	10.43528412	30.16738421	4.81965880
Ti	25.57769540	19.74925867	4.80865714
Ti	25.65430851	30.25568077	4.80469625
Ti	14.20922182	19.72843919	4.68537909
Ti	14.37583574	30.19187721	4.68635060
Ti	29.47132209	19.77617915	4.70062984
Ti	29.42439378	30.24038177	4.68452587
Ti	17.95174298	19.81139650	4.73602863
Ti	18.20703588	30.25119040	4.67453313
Ti	12.33650285	14.57713880	4.77214986
Ti	12.31131222	24.98176160	4.71059439
Ti	27.74198112	14.53335601	4.68100441
Ti	27.52546966	25.02146367	4.82396155
Ti	16.29250542	14.50108074	4.79438483
Ti	16.10377296	24.89640350	4.65547712
Ti	19.92373144	14.52501250	4.69256469
Ti	19.93528590	24.93168196	4.90647168
Ti	12.35439432	11.57186987	5.46188689
Ti	12.27639953	22.16091829	5.48944496
Ti	27.70566986	11.59114834	5.49646581
Ti	27.59316096	21.95394518	5.46936920
Ti	16.15793444	11.61055899	5.51613815
Ti	16.12016677	22.04137566	5.51782749
Ti	19.95046206	11.59699576	5.42233161
Ti	19.91558969	21.99845319	5.47465592
Ti	10.32420240	16.72631166	5.64717259
Ti	10.36797746	27.24561643	5.50748195
Ti	25.64152479	16.82809214	5.46660409
Ti	25.75057418	27.35413615	5.51057474
Ti	14.40360262	16.77025681	5.77606877
Ti	14.21370912	27.23978713	5.51133193
Ti	29.65347411	16.84011352	5.57498958
Ti	29.34440531	27.34047580	5.43917141
Ti	18.15918149	16.95541188	5.58776512
Ti	18.01626538	27.34280646	5.36957339
O	22.01825892	17.75498249	3.99809843
O	21.92842690	28.35785703	4.04349520
O	8.59733026	12.61954543	3.92134784
O	8.52250066	22.99767954	3.92946481
O	23.73680980	12.63078738	3.86368500
O	23.92603659	23.01205339	3.93444268
O	8.48781973	20.18325813	4.84434425
O	8.52266701	30.63184459	5.01565219
O	23.73429005	20.11076232	4.84702860
O	23.74543987	30.69323779	4.92764392
O	21.87789514	14.97276274	4.70672384
O	21.81639030	25.27031274	4.91560026
O	21.79087165	11.16789833	5.67046582
O	21.78711626	21.56103184	5.76696169
O	8.42756442	16.36540060	5.81164944
O	8.44379770	26.65776906	5.69433495
O	23.82698626	16.40230413	5.84280603
O	23.82580744	26.64184573	5.94941058
O	8.37008270	13.35482798	6.34717885
O	8.67479998	23.89130512	6.30187768
O	23.69531714	13.40467990	6.31121917
O	23.54477590	23.77386273	6.45444539
O	21.75816384	18.56572929	6.34229671
O	21.90673079	29.02716957	6.50009771
O	10.30272131	17.81855038	4.06180156
O	10.45712519	28.33772217	3.94273753
O	25.58871303	17.82845946	3.96514930
O	25.69216204	28.35775507	3.89147966
O	14.32815770	17.76552286	4.00922803
O	14.25185115	28.33028762	3.96891795
O	29.68310882	17.77837826	3.91316552
O	29.43289286	28.35489163	3.85810756
O	17.82702370	17.98867864	4.01291282
O	18.17146327	28.40387740	3.89028031
O	12.28218764	12.67357229	3.99951969
O	12.04955586	23.17144439	3.90076708
O	27.71777340	12.56093571	3.87869587
O	27.70971141	23.03709413	3.92690765
O	16.39224424	12.65825014	3.99321418
O	16.18008232	22.90614441	3.84370119
O	19.75291541	12.66674341	3.94220374
O	19.87632991	23.20331475	3.98184391
O	12.22298046	20.15336732	4.81583179
O	12.38779275	30.55061518	5.05073156
O	27.53922840	20.15230056	4.87205465
O	27.52562833	30.72115502	4.85169819
O	16.10487652	20.17897844	4.74113421
O	16.27017419	30.49169412	4.83770854
O	19.93768940	20.15991075	4.75198898
O	20.08887965	30.73695170	4.76308775
O	10.45995463	14.95364265	4.67751502
O	10.39710767	25.38250054	4.78060729
O	25.69454678	14.93681254	4.75051116
O	25.64398044	25.54859254	4.78862179
O	14.29651673	14.99070272	4.81545466
O	14.23985691	25.35022240	4.67737850
O	29.67774884	15.03373053	5.01674193
O	29.46856380	25.42446838	4.73631508
O	18.05253490	14.90116202	4.71947704
O	18.02890782	25.38101120	4.76758911
O	10.46124569	11.10934986	5.78746917
O	10.36139833	21.56566048	5.72372051
O	25.75629153	11.19385022	5.75451527
O	25.60276783	21.64531104	5.89398723
O	14.20149010	11.12057595	5.67545284
O	14.17743098	21.50099505	5.64400388
O	29.49652905	10.92655652	5.73957796
O	29.48235489	21.62254726	5.81884559
O	18.07134898	11.14691776	5.92347080
O	18.03758641	21.63484880	5.67155607
O	12.33243363	16.34780727	5.72456140
O	12.30185661	26.83638257	5.60066337
O	27.64705025	16.30632452	5.68906837
O	27.48344440	26.81639790	5.93174299
O	16.33975045	16.26119014	5.97084442
O	16.16750093	26.77217790	5.68258187
O	19.98097646	16.34651289	5.74226891
O	19.90081161	26.83617628	5.85422336
O	12.44597766	13.33910745	6.35137420
O	12.10948516	23.92449102	6.30965396
O	27.75006857	13.41274936	6.32611064
O	27.62254157	23.79224005	6.29165038
O	16.08890276	13.33709934	6.34599039
O	16.08851297	23.80131241	6.35112053
O	19.88664993	13.33704941	6.31122309
O	20.07187092	23.63935584	6.50234273
O	10.09133580	18.67759798	6.41683123
O	10.40818687	28.96166016	6.39718215
O	25.93163204	18.50502002	6.28312535
O	25.75737772	29.05723299	6.35561813
O	14.47897762	18.60162104	6.33767366
O	14.38654967	28.92810749	6.32645730
O	29.41243194	18.66079471	6.32448877
O	29.49159719	29.13208363	6.26729695
O	18.08774712	18.71795076	6.35152659
O	18.10974119	28.91585022	6.39289334
H	12.84716499	14.10817816	7.89924167
H	13.69808338	14.95937076	11.30783806
H	14.29382357	18.18707601	8.44060109
O	14.29309259	15.89913123	7.50100471
O	12.96309990	14.53946545	8.80805157
C	13.77599739	15.62143469	8.64049625
C	14.02923505	16.45473418	9.79131173
C	13.73561573	16.02082117	11.07028625
C	14.26195091	17.89291870	9.55160840
N	13.10371203	19.64693287	15.39425772
N	15.80222386	22.36611495	17.03492339
N	15.39317819	20.82844954	14.28882730
N	13.35957525	21.28305934	18.11264896
C	20.55930799	23.48373889	13.52672361
C	16.40623257	22.99372116	22.68536931
C	8.12272736	19.07685106	19.00792471
C	18.25127621	23.21576659	14.20327471
C	15.21678034	23.38779518	20.57952845
C	10.39028478	18.99178502	18.13201331
C	19.02447524	25.20863847	12.98049889
C	14.79872342	24.78292454	22.52944536
C	9.26947876	16.90097535	18.80335626
C	13.92068378	19.20248782	13.08869301
C	17.12642635	22.51156803	14.86636224
C	14.84781313	22.96505627	19.20887288
C	11.62064011	19.59586223	17.47383942
C	15.11047632	19.91826641	13.28694031
C	16.55767381	21.44418567	14.09945549
C	13.78959843	21.99022868	19.18876611
C	12.29369655	20.44971217	18.37297688
C	16.25000317	19.98058794	12.39632078
C	17.12531575	20.95977718	12.84886917
C	12.91555389	21.63096775	20.25121454
C	12.06016160	20.62323782	19.80249833
C	12.91418089	19.17500542	14.11624268
C	16.69228818	22.93469407	16.12647984
C	15.76716936	23.13567103	18.16911118
C	11.88537622	19.33700659	16.06241903
C	11.65857539	18.46137076	14.01454219
C	17.26230632	24.09530559	16.77615165
C	16.66513364	24.23437976	18.02753831
C	11.04744251	18.56022318	15.21199052
H	11.37065788	17.81695963	13.15745678
H	17.96470054	24.78622121	16.28774709
H	16.88413449	25.09710420	18.67425450
H	10.04513274	18.07613240	15.46394806
H	16.47488439	19.44119644	11.43522848
H	18.05179198	21.24417011	12.39816276
H	12.98405869	22.06780999	21.25351368
H	11.37873183	19.98838048	20.34182968
H	18.76866365	26.13828021	12.49437091
H	14.30125769	25.60072405	23.05050135
H	9.09998046	15.81204966	18.84075451
H	21.61520313	23.15906026	13.57581794
H	17.12007539	22.30459560	23.24064222
H	7.18369151	19.64102363	19.10246107
H	14.88855307	20.79582046	15.19209689
H	13.82781616	21.48593161	17.20090375
C	21.30183191	25.26634990	11.94808903
H	21.23156066	24.77256970	10.97037646
H	22.31403199	24.94686553	12.27918748
H	21.26274127	26.36217409	11.92344720
C	19.96515965	21.44285581	14.78369739
H	19.44299318	20.61956648	14.27106891
H	19.81683417	21.32417618	15.88643412
H	20.99872761	21.17953662	14.53625429
C	16.62148868	25.02873422	13.76512156
H	16.58230227	26.07500833	14.05399886
H	16.00246660	24.52528988	14.48008148
H	15.95635836	24.93707119	12.88685658
C	11.62521692	16.80935834	17.95309980
H	11.62372994	15.85965670	18.51216702
H	12.45908112	17.45015788	18.15802657
H	11.54062122	16.52339916	16.87551232
C	9.29210075	21.27436682	18.44935196
H	9.73266120	21.68242641	19.35779094
H	8.23717095	21.64976136	18.36428295
H	9.83061205	21.67629233	17.57719829
C	6.95696529	16.93917820	19.54151455
H	6.67195150	17.12356992	20.57508869
H	7.02762010	15.84177896	19.32196234
H	6.10751753	17.26414105	18.98330171
C	13.46011225	25.05853971	20.38543079
H	13.66380538	25.09299889	19.34249163
H	13.19462139	25.98434581	20.80752967
H	12.59486998	24.41986197	20.48349628
C	16.84291588	21.49336789	20.61912245
H	17.44466143	21.87291517	19.79076373
H	16.09128669	20.79291856	20.17791736
H	17.48105164	20.93573853	21.39401495
C	15.72189093	24.16756127	24.82571196
H	16.30422674	23.35527466	25.20152809
H	14.70038364	24.09453678	25.24920792
H	16.14954717	25.15155096	25.04213908
C	20.27662335	24.65522377	12.78727124
C	19.59316753	22.75236623	14.21013809
C	17.99963720	24.47613214	13.60918283
C	14.53454978	24.44040078	21.20656481
C	16.16782635	22.67383401	21.31156471
C	15.64615162	23.95533654	23.31309802
C	10.39842708	17.60724104	18.31805454
C	9.24298333	19.78187124	18.53266684
C	8.11279042	17.66500154	19.08763696
H	13.33223797	16.43823607	13.09476590
H	14.34581714	19.84238659	10.41661874
C	13.86734583	18.28636974	11.94782523
C	13.63838869	16.89404953	12.16153358
C	14.18639724	18.77804209	10.60626025

Ti O H C N 0
6-31G*
****

