%chk=f00013564.chk
%mem=24GB
%nproc=12
#p b3lyp/6-31G*

title

0 1
Ti	2.81187400	0.19704000	1.10336000
Ti	0.90594400	5.44057000	1.10336000
Ti	4.71781400	5.44057000	1.10336000
Ti	0.90594400	2.47241000	1.99114000
Ti	4.71781400	2.47241000	1.99114000
Ti	2.81187400	7.71594000	1.99115000
O	2.81187400	8.81302000	0.37332000
O	0.90594400	3.56949000	0.37332000
O	4.71781400	3.56949000	0.37332000
O	0.90594400	0.60134000	1.26110000
O	4.71781400	0.60134000	1.26110000
O	2.81187400	5.84486000	1.26111000
O	2.81187400	2.06812000	1.83340000
O	0.90594400	7.31164000	1.83340000
O	4.71781400	7.31164000	1.83340000
O	0.90594400	4.34349000	2.72118000
O	4.71781400	4.34349000	2.72118000
O	2.81187400	9.58701000	2.72118000
Ti	6.62374588	0.19704000	1.10336000
Ti	21.87123776	0.19704000	1.10336000
Ti	8.52968588	5.44057000	1.10336000
Ti	23.77717776	5.44057000	1.10336000
Ti	8.52968588	2.47241000	1.99114000
Ti	23.77717776	2.47241000	1.99114000
Ti	6.62374588	7.71594000	1.99115000
Ti	21.87123776	7.71594000	1.99115000
Ti	10.43561588	0.19704000	1.10336000
Ti	25.68310776	0.19704000	1.10336000
Ti	14.24749588	0.19704000	1.10336000
Ti	29.49498776	0.19704000	1.10336000
Ti	18.05936588	0.19704000	1.10336000
Ti	12.34155588	5.44057000	1.10336000
Ti	27.58904776	5.44057000	1.10336000
Ti	16.15343588	5.44057000	1.10336000
Ti	19.96530588	5.44057000	1.10336000
Ti	12.34155588	2.47241000	1.99114000
Ti	27.58904776	2.47241000	1.99114000
Ti	16.15343588	2.47241000	1.99114000
Ti	19.96530588	2.47241000	1.99114000
Ti	10.43561588	7.71594000	1.99115000
Ti	25.68310776	7.71594000	1.99115000
Ti	14.24749588	7.71594000	1.99115000
Ti	29.49498776	7.71594000	1.99115000
Ti	18.05936588	7.71594000	1.99115000
O	6.62374588	8.81302000	0.37332000
O	21.87123776	8.81302000	0.37332000
O	8.52968588	3.56949000	0.37332000
O	23.77717776	3.56949000	0.37332000
O	8.52968588	0.60134000	1.26110000
O	23.77717776	0.60134000	1.26110000
O	6.62374588	5.84486000	1.26111000
O	21.87123776	5.84486000	1.26111000
O	6.62374588	2.06812000	1.83340000
O	21.87123776	2.06812000	1.83340000
O	8.52968588	7.31164000	1.83340000
O	23.77717776	7.31164000	1.83340000
O	8.52968588	4.34349000	2.72118000
O	23.77717776	4.34349000	2.72118000
O	6.62374588	9.58701000	2.72118000
O	21.87123776	9.58701000	2.72118000
O	10.43561588	8.81302000	0.37332000
O	25.68310776	8.81302000	0.37332000
O	14.24749588	8.81302000	0.37332000
O	29.49498776	8.81302000	0.37332000
O	18.05936588	8.81302000	0.37332000
O	12.34155588	3.56949000	0.37332000
O	27.58904776	3.56949000	0.37332000
O	16.15343588	3.56949000	0.37332000
O	19.96530588	3.56949000	0.37332000
O	12.34155588	0.60134000	1.26110000
O	27.58904776	0.60134000	1.26110000
O	16.15343588	0.60134000	1.26110000
O	19.96530588	0.60134000	1.26110000
O	10.43561588	5.84486000	1.26111000
O	25.68310776	5.84486000	1.26111000
O	14.24749588	5.84486000	1.26111000
O	29.49498776	5.84486000	1.26111000
O	18.05936588	5.84486000	1.26111000
O	10.43561588	2.06812000	1.83340000
O	25.68310776	2.06812000	1.83340000
O	14.24749588	2.06812000	1.83340000
O	29.49498776	2.06812000	1.83340000
O	18.05936588	2.06812000	1.83340000
O	12.34155588	7.31164000	1.83340000
O	27.58904776	7.31164000	1.83340000
O	16.15343588	7.31164000	1.83340000
O	19.96530588	7.31164000	1.83340000
O	12.34155588	4.34349000	2.72118000
O	27.58904776	4.34349000	2.72118000
O	16.15343588	4.34349000	2.72118000
O	19.96530588	4.34349000	2.72118000
O	10.43561588	9.58701000	2.72118000
O	25.68310776	9.58701000	2.72118000
O	14.24749588	9.58701000	2.72118000
O	29.49498776	9.58701000	2.72118000
O	18.05936588	9.58701000	2.72118000
Ti	2.81187400	10.68408607	1.10336000
Ti	2.81187400	21.17113214	1.10336000
Ti	0.90594400	15.92761607	1.10336000
Ti	0.90594400	26.41466214	1.10336000
Ti	4.71781400	15.92761607	1.10336000
Ti	4.71781400	26.41466214	1.10336000
Ti	0.90594400	12.95945607	1.99114000
Ti	0.90594400	23.44650214	1.99114000
Ti	4.71781400	12.95945607	1.99114000
Ti	4.71781400	23.44650214	1.99114000
Ti	2.81187400	18.20298607	1.99115000
Ti	2.81187400	28.69003214	1.99115000
O	2.81187400	19.30006607	0.37332000
O	2.81187400	29.78711214	0.37332000
O	0.90594400	14.05653607	0.37332000
O	0.90594400	24.54358214	0.37332000
O	4.71781400	14.05653607	0.37332000
O	4.71781400	24.54358214	0.37332000
O	0.90594400	11.08838607	1.26110000
O	0.90594400	21.57543214	1.26110000
O	4.71781400	11.08838607	1.26110000
O	4.71781400	21.57543214	1.26110000
O	2.81187400	16.33190607	1.26111000
O	2.81187400	26.81895214	1.26111000
O	2.81187400	12.55516607	1.83340000
O	2.81187400	23.04221214	1.83340000
O	0.90594400	17.79868607	1.83340000
O	0.90594400	28.28573214	1.83340000
O	4.71781400	17.79868607	1.83340000
O	4.71781400	28.28573214	1.83340000
O	0.90594400	14.83053607	2.72118000
O	0.90594400	25.31758214	2.72118000
O	4.71781400	14.83053607	2.72118000
O	4.71781400	25.31758214	2.72118000
O	2.81187400	20.07405607	2.72118000
O	2.81187400	30.56110214	2.72118000
Ti	6.62374588	10.68408607	1.10336000
Ti	6.62374588	21.17113214	1.10336000
Ti	21.87123776	10.68408607	1.10336000
Ti	21.87123776	21.17113214	1.10336000
Ti	8.52968588	15.92761607	1.10336000
Ti	8.52968588	26.41466214	1.10336000
Ti	23.77717776	15.92761607	1.10336000
Ti	23.77717776	26.41466214	1.10336000
Ti	8.52968588	12.95945607	1.99114000
Ti	8.52968588	23.44650214	1.99114000
Ti	23.77717776	12.95945607	1.99114000
Ti	23.77717776	23.44650214	1.99114000
Ti	6.62374588	18.20298607	1.99115000
Ti	6.62374588	28.69003214	1.99115000
Ti	21.87123776	18.20298607	1.99115000
Ti	21.87123776	28.69003214	1.99115000
Ti	10.43561588	10.68408607	1.10336000
Ti	10.43561588	21.17113214	1.10336000
Ti	25.68310776	10.68408607	1.10336000
Ti	25.68310776	21.17113214	1.10336000
Ti	14.24749588	10.68408607	1.10336000
Ti	14.24749588	21.17113214	1.10336000
Ti	29.49498776	10.68408607	1.10336000
Ti	29.49498776	21.17113214	1.10336000
Ti	18.05936588	10.68408607	1.10336000
Ti	18.05936588	21.17113214	1.10336000
Ti	12.34155588	15.92761607	1.10336000
Ti	12.34155588	26.41466214	1.10336000
Ti	27.58904776	15.92761607	1.10336000
Ti	27.58904776	26.41466214	1.10336000
Ti	16.15343588	15.92761607	1.10336000
Ti	16.15343588	26.41466214	1.10336000
Ti	19.96530588	15.92761607	1.10336000
Ti	19.96530588	26.41466214	1.10336000
Ti	12.34155588	12.95945607	1.99114000
Ti	12.34155588	23.44650214	1.99114000
Ti	27.58904776	12.95945607	1.99114000
Ti	27.58904776	23.44650214	1.99114000
Ti	16.15343588	12.95945607	1.99114000
Ti	16.15343588	23.44650214	1.99114000
Ti	19.96530588	12.95945607	1.99114000
Ti	19.96530588	23.44650214	1.99114000
Ti	10.43561588	18.20298607	1.99115000
Ti	10.43561588	28.69003214	1.99115000
Ti	25.68310776	18.20298607	1.99115000
Ti	25.68310776	28.69003214	1.99115000
Ti	14.24749588	18.20298607	1.99115000
Ti	14.24749588	28.69003214	1.99115000
Ti	29.49498776	18.20298607	1.99115000
Ti	29.49498776	28.69003214	1.99115000
Ti	18.05936588	18.20298607	1.99115000
Ti	18.05936588	28.69003214	1.99115000
O	6.62374588	19.30006607	0.37332000
O	6.62374588	29.78711214	0.37332000
O	21.87123776	19.30006607	0.37332000
O	21.87123776	29.78711214	0.37332000
O	8.52968588	14.05653607	0.37332000
O	8.52968588	24.54358214	0.37332000
O	23.77717776	14.05653607	0.37332000
O	23.77717776	24.54358214	0.37332000
O	8.52968588	11.08838607	1.26110000
O	8.52968588	21.57543214	1.26110000
O	23.77717776	11.08838607	1.26110000
O	23.77717776	21.57543214	1.26110000
O	6.62374588	16.33190607	1.26111000
O	6.62374588	26.81895214	1.26111000
O	21.87123776	16.33190607	1.26111000
O	21.87123776	26.81895214	1.26111000
O	6.62374588	12.55516607	1.83340000
O	6.62374588	23.04221214	1.83340000
O	21.87123776	12.55516607	1.83340000
O	21.87123776	23.04221214	1.83340000
O	8.52968588	17.79868607	1.83340000
O	8.52968588	28.28573214	1.83340000
O	23.77717776	17.79868607	1.83340000
O	23.77717776	28.28573214	1.83340000
O	8.52968588	14.83053607	2.72118000
O	8.52968588	25.31758214	2.72118000
O	23.77717776	14.83053607	2.72118000
O	23.77717776	25.31758214	2.72118000
O	6.62374588	20.07405607	2.72118000
O	6.62374588	30.56110214	2.72118000
O	21.87123776	20.07405607	2.72118000
O	21.87123776	30.56110214	2.72118000
O	10.43561588	19.30006607	0.37332000
O	10.43561588	29.78711214	0.37332000
O	25.68310776	19.30006607	0.37332000
O	25.68310776	29.78711214	0.37332000
O	14.24749588	19.30006607	0.37332000
O	14.24749588	29.78711214	0.37332000
O	29.49498776	19.30006607	0.37332000
O	29.49498776	29.78711214	0.37332000
O	18.05936588	19.30006607	0.37332000
O	18.05936588	29.78711214	0.37332000
O	12.34155588	14.05653607	0.37332000
O	12.34155588	24.54358214	0.37332000
O	27.58904776	14.05653607	0.37332000
O	27.58904776	24.54358214	0.37332000
O	16.15343588	14.05653607	0.37332000
O	16.15343588	24.54358214	0.37332000
O	19.96530588	14.05653607	0.37332000
O	19.96530588	24.54358214	0.37332000
O	12.34155588	11.08838607	1.26110000
O	12.34155588	21.57543214	1.26110000
O	27.58904776	11.08838607	1.26110000
O	27.58904776	21.57543214	1.26110000
O	16.15343588	11.08838607	1.26110000
O	16.15343588	21.57543214	1.26110000
O	19.96530588	11.08838607	1.26110000
O	19.96530588	21.57543214	1.26110000
O	10.43561588	16.33190607	1.26111000
O	10.43561588	26.81895214	1.26111000
O	25.68310776	16.33190607	1.26111000
O	25.68310776	26.81895214	1.26111000
O	14.24749588	16.33190607	1.26111000
O	14.24749588	26.81895214	1.26111000
O	29.49498776	16.33190607	1.26111000
O	29.49498776	26.81895214	1.26111000
O	18.05936588	16.33190607	1.26111000
O	18.05936588	26.81895214	1.26111000
O	10.43561588	12.55516607	1.83340000
O	10.43561588	23.04221214	1.83340000
O	25.68310776	12.55516607	1.83340000
O	25.68310776	23.04221214	1.83340000
O	14.24749588	12.55516607	1.83340000
O	14.24749588	23.04221214	1.83340000
O	29.49498776	12.55516607	1.83340000
O	29.49498776	23.04221214	1.83340000
O	18.05936588	12.55516607	1.83340000
O	18.05936588	23.04221214	1.83340000
O	12.34155588	17.79868607	1.83340000
O	12.34155588	28.28573214	1.83340000
O	27.58904776	17.79868607	1.83340000
O	27.58904776	28.28573214	1.83340000
O	16.15343588	17.79868607	1.83340000
O	16.15343588	28.28573214	1.83340000
O	19.96530588	17.79868607	1.83340000
O	19.96530588	28.28573214	1.83340000
O	12.34155588	14.83053607	2.72118000
O	12.34155588	25.31758214	2.72118000
O	27.58904776	14.83053607	2.72118000
O	27.58904776	25.31758214	2.72118000
O	16.15343588	14.83053607	2.72118000
O	16.15343588	25.31758214	2.72118000
O	19.96530588	14.83053607	2.72118000
O	19.96530588	25.31758214	2.72118000
O	10.43561588	20.07405607	2.72118000
O	10.43561588	30.56110214	2.72118000
O	25.68310776	20.07405607	2.72118000
O	25.68310776	30.56110214	2.72118000
O	14.24749588	20.07405607	2.72118000
O	14.24749588	30.56110214	2.72118000
O	29.49498776	20.07405607	2.72118000
O	29.49498776	30.56110214	2.72118000
O	18.05936588	20.07405607	2.72118000
O	18.05936588	30.56110214	2.72118000
Ti	6.65764327	9.31052307	4.62562554
Ti	6.71100863	6.28759953	5.38396042
Ti	2.79913957	9.22679020	4.85421480
Ti	0.82000430	3.95746698	4.78853769
Ti	4.70414442	3.99880448	4.80982520
Ti	0.86457039	1.03701367	5.44251752
Ti	4.72696271	1.08767188	5.35806368
Ti	2.86232168	6.24170882	5.37336541
O	6.55998572	7.37460241	3.87467906
O	6.66710751	4.47243313	4.69607661
O	6.60628866	0.65205396	5.58348123
O	6.72700765	8.00241330	6.25925496
O	2.87911726	7.30254930	3.84088585
O	0.88504714	2.08916052	3.95680049
O	4.63549581	2.10425560	3.85486271
O	0.96738485	9.78827713	4.72068074
O	4.67928961	9.67467019	4.82417588
O	2.83630957	4.30111931	4.85514010
O	2.82510760	0.58090407	5.64543003
O	0.82686476	5.82650940	5.68913937
O	4.75636435	5.90072944	5.81729963
O	0.88472217	2.79847400	6.30824283
O	4.76284631	2.78259777	6.39778593
O	2.82556559	7.99440222	6.31504641
Ti	21.81652135	9.26116918	4.82444529
Ti	8.58417247	4.02478045	4.76341734
Ti	23.69673262	3.94071515	4.88283023
Ti	8.52850002	1.07029705	5.41083008
Ti	23.66697139	1.04094302	5.50690466
Ti	21.84063849	6.24214940	5.53429575
Ti	10.54302039	9.22540498	4.73479923
Ti	25.63870986	9.21955288	4.68886989
Ti	14.27325396	9.18687259	4.76792236
Ti	29.55030119	9.22019526	4.67964387
Ti	18.10533957	9.18284073	4.74348900
Ti	12.27472529	3.97521739	4.73575730
Ti	27.52322343	3.99077476	4.63655353
Ti	16.08831145	4.03782382	4.74661812
Ti	19.88174521	3.95372353	4.72867359
Ti	12.37122004	1.05684436	5.48849302
Ti	27.50776399	1.10779834	5.42901310
Ti	16.10266165	1.11960748	5.49470538
Ti	19.96984088	1.04658506	5.47968187
Ti	10.41659601	6.30136420	5.48600101
Ti	25.74430294	6.32195836	5.45728322
Ti	14.25552427	6.25016261	5.52110004
Ti	29.40321954	6.24072312	5.42945195
Ti	18.07824379	6.15327496	5.59479929
O	21.72962238	7.45580531	3.96022549
O	8.50739205	2.08261620	3.91438848
O	23.80963305	2.14404100	3.96449135
O	8.59977984	9.69188120	4.82448343
O	23.70148092	9.63984486	4.83438021
O	21.80544390	4.43669443	4.79420653
O	21.83771936	0.50904719	5.78849185
O	8.57540775	5.82395264	5.66438747
O	23.80404101	5.94901388	5.69806432
O	8.81069910	2.74587011	6.25951718
O	23.70371527	2.84529324	6.46246027
O	21.70416752	8.09957447	6.36109879
O	10.49745872	7.34414826	3.99113174
O	25.70328304	7.35522834	3.91315733
O	14.30156982	7.36999089	3.91355335
O	29.62637621	7.38548382	3.96018558
O	18.09356028	7.28677153	3.99796668
O	12.39084363	2.06603173	3.97183552
O	27.49154019	2.06406765	3.89101586
O	16.23910412	2.13721945	3.95542614
O	19.78207732	2.07760587	3.86571805
O	12.40273093	9.67357006	4.81882480
O	27.59211051	9.66227165	4.61309327
O	16.22412131	9.64357938	4.81154123
O	19.87738456	9.80982563	4.95076643
O	10.48886065	4.56861776	4.62684393
O	25.60201288	4.41171008	4.79999101
O	14.13989826	4.47193872	4.69243573
O	29.43614554	4.38774416	4.58157417
O	18.04805597	4.30905642	4.86679264
O	10.47274972	0.55422679	5.78713013
O	25.62234162	0.49368889	5.75162618
O	14.26587970	0.42470796	5.88617165
O	29.43016310	0.54613150	5.54233902
O	18.11911732	0.69830249	5.76543482
O	12.32174307	5.75168995	5.93188700
O	27.57070210	5.72998965	5.60460587
O	16.11795126	5.79982084	5.61712998
O	19.95943227	5.55528635	5.92890011
O	12.30451919	2.80700182	6.44659142
O	27.52104972	2.79661792	6.35530562
O	15.91822790	2.75889779	6.43778369
O	20.04496641	2.78343770	6.30380144
O	10.31699521	8.10722160	6.30895455
O	25.78583446	8.14687832	6.28826193
O	14.38260925	7.97127773	6.36235274
O	29.62425375	8.01369147	6.29284467
O	18.26279393	8.06129608	6.37285275
Ti	6.68797203	19.65315357	4.78744859
Ti	6.50658573	30.17991862	4.77290115
Ti	6.70188031	16.75284075	5.56257769
Ti	6.69616235	27.30316003	5.46153554
Ti	2.73084428	19.68965441	4.83130251
Ti	2.75932416	30.11460015	4.76807536
Ti	0.97122720	14.49978157	4.75690262
Ti	0.96983826	24.93741228	4.64214354
Ti	4.76739481	14.47775323	4.84220738
Ti	4.78493875	24.97862294	4.64714520
Ti	0.93472118	11.57228669	5.58519847
Ti	0.97966746	22.12973863	5.58787958
Ti	4.69382318	11.55354886	5.48640132
Ti	4.73695488	21.97513600	5.36281276
Ti	2.87218938	16.74903059	5.46288769
Ti	2.82466625	27.19476005	5.41081433
O	6.46420136	17.85899359	4.04730546
O	6.85059477	28.35182030	3.88982193
O	6.72877219	14.84292786	4.89452600
O	6.67760563	25.35795083	4.89693276
O	6.58890569	11.03247631	5.72595430
O	6.61660671	21.54917718	5.62177061
O	6.93115392	18.43621206	6.41546761
O	6.60656930	29.05300768	6.32877319
O	2.96482321	17.82148083	3.92689135
O	2.94806263	28.18926905	3.85829929
O	1.04780192	12.63374712	3.94305965
O	1.04816768	23.06484159	3.97307373
O	4.55218898	12.65225568	3.95192890
O	4.70375021	23.03458475	3.88648365
O	0.90704003	20.26092499	4.70327373
O	0.89039104	30.47732504	4.85449622
O	4.70304201	19.98159827	4.92832127
O	4.66651366	30.62376816	4.85965217
O	2.85781462	14.87046611	4.95697655
O	2.86538002	25.29368833	4.89630489
O	2.81956964	10.98014876	5.93412286
O	2.79974070	21.61828807	5.62763449
O	0.91951294	16.40200982	5.61145076
O	0.87260064	26.88108198	5.49525698
O	4.79660263	16.28758134	5.86147051
O	4.73167432	26.91825186	5.75835955
O	0.94340409	13.31116245	6.28553072
O	0.97412990	23.96880933	6.38901449
O	4.79587425	13.20146774	6.44474819
O	4.86050028	23.74438170	6.29980113
O	2.78995069	18.44986546	6.39369756
O	2.86291065	28.94008094	6.37368427
Ti	21.92089074	19.69515373	4.84908909
Ti	21.83893179	30.23515740	4.72184416
Ti	8.58364860	14.45192767	4.71654189
Ti	8.63006937	25.01439644	4.77885240
Ti	23.86937629	14.39743275	4.79817267
Ti	23.81431455	24.96496999	4.64676776
Ti	8.61696686	11.60194009	5.57975995
Ti	8.48762630	22.11918449	5.58577543
Ti	23.82491210	11.52202560	5.51870549
Ti	23.88937519	22.07446563	5.50665914
Ti	21.86697257	16.86788102	5.63264202
Ti	21.93462079	27.38546378	5.63314314
Ti	10.53547026	19.86025762	4.79616263
Ti	10.40215203	30.17076585	4.77818863
Ti	25.83554496	19.68750402	4.69595266
Ti	25.68171858	30.11872945	4.70936153
Ti	14.33377538	19.82942269	4.80692780
Ti	14.24040481	30.20987523	4.70297199
Ti	29.53769867	19.75478968	4.72685902
Ti	29.47511690	30.19177029	4.79285906
Ti	18.10191848	19.77052411	4.77861209
Ti	18.10932710	30.18861931	4.72975492
Ti	12.32692613	14.45454812	4.81503830
Ti	12.39686789	24.89197965	4.80738298
Ti	27.60660276	14.40448544	4.87629678
Ti	27.61055264	24.87746891	4.79842544
Ti	16.13772343	14.63716448	4.63068717
Ti	16.14460659	25.02492490	4.77928336
Ti	20.03193633	14.65573370	4.79367406
Ti	20.04877601	24.97880210	4.93183845
Ti	12.38361731	11.54008099	5.55466724
Ti	12.50576772	22.03622113	5.64232393
Ti	27.66845286	11.46896948	5.48647482
Ti	27.64880640	21.98892707	5.45591669
Ti	16.15023573	11.66333067	5.49543842
Ti	16.37604595	22.13757448	5.55276179
Ti	19.79838777	11.63553522	5.46801112
Ti	20.23076334	22.10836689	5.57328113
Ti	10.50099958	16.87310605	5.55296865
Ti	10.35560383	27.28115415	5.58782307
Ti	25.78202783	16.82297418	5.55953009
Ti	25.70243246	27.20007195	5.46183520
Ti	14.30453649	16.82250363	5.66184074
Ti	14.26515492	27.37794265	5.55376286
Ti	29.56211544	16.83055024	5.52013020
Ti	29.49555288	27.18681109	5.37008777
Ti	18.07614457	16.82000436	5.40051891
Ti	18.08138307	27.29902975	5.51176239
O	21.84756332	17.80490140	3.95071082
O	21.80469430	28.39710308	3.97873824
O	8.57465430	12.53926569	3.95401896
O	8.57798734	23.16420184	3.95190881
O	23.75842542	12.62831987	3.89010158
O	23.73222174	22.99825674	3.92615210
O	8.55709232	20.22693589	4.75442406
O	8.54404242	30.69968158	4.61056549
O	23.87333273	20.18630505	4.80326799
O	23.77040453	30.73370244	4.59881203
O	21.95506636	15.02561573	4.87300210
O	21.90197686	25.36306680	4.96690068
O	21.80061816	11.16845226	5.87097431
O	22.07956970	21.59153075	5.89934959
O	8.62878220	16.33729567	5.69115010
O	8.48525775	26.79225429	5.84632686
O	23.91364081	16.30814743	6.00855217
O	23.77923161	26.79957681	5.71248195
O	8.53525888	13.34705207	6.36138245
O	8.66077989	23.84584313	6.30476877
O	23.81228055	13.30048579	6.28528598
O	23.82311884	23.78571918	6.34392481
O	21.82130616	18.67497642	6.45591629
O	22.05877756	29.27451876	6.40522174
O	10.36988881	17.87920614	3.97178589
O	10.45615172	28.27093561	3.97272253
O	25.82793424	17.76618882	3.93955389
O	25.62312390	28.27154898	3.88794913
O	14.29075175	17.97361260	3.99142934
O	14.15714867	28.35237761	3.97433615
O	29.47708207	17.82963092	3.88910099
O	29.47884909	28.31762983	3.86561310
O	18.22044232	17.88837340	3.91474006
O	18.15763150	28.36407704	3.95546993
O	12.46665395	12.62578670	3.97453569
O	12.48875072	23.04674735	3.95585648
O	27.36569424	12.56747140	3.98076662
O	27.54109871	22.93383090	3.82307403
O	16.15761276	12.58848829	3.92937973
O	16.06597344	22.97251606	3.88646319
O	20.06502106	12.73571856	3.93306405
O	20.20933065	23.19325098	3.97191828
O	12.46485652	20.21382840	4.75698371
O	12.29237996	30.59921942	4.82714415
O	27.72072532	20.11082925	4.89265916
O	27.52939097	30.59364373	4.74551358
O	16.25076530	20.20894630	4.77620026
O	16.15623807	30.75298926	4.68134944
O	20.02462633	20.25952659	4.76145470
O	19.95497796	30.63944185	4.87105658
O	10.46836183	14.94362546	4.69644513
O	10.51135118	25.39901532	4.89340857
O	25.72050169	14.94937199	4.78034656
O	25.72413597	25.29048629	4.59989856
O	14.23725064	14.91400626	4.82446336
O	14.28834314	25.52286125	4.77072567
O	29.52326213	14.83438059	4.79126779
O	29.45029369	25.28568268	4.70002103
O	18.07952497	14.91268033	4.60121092
O	18.11402087	25.48357588	4.75927811
O	10.47318389	10.93744772	5.92670090
O	10.53398046	21.67548919	5.80171193
O	25.71988162	11.02350064	5.90274418
O	25.78172699	21.58776782	5.67924062
O	14.29124146	11.09083620	5.82565673
O	14.46092095	21.61526739	5.84465235
O	29.56659104	11.05308632	5.67694671
O	29.56448629	21.72370456	5.78576766
O	18.01240294	11.18618665	5.92116740
O	18.27074593	21.62299487	5.85088846
O	12.32045500	16.20342195	5.85310271
O	12.33135412	26.79916850	5.85407450
O	27.62997937	16.28714308	5.89129360
O	27.59795555	26.76020180	5.72473747
O	16.24320289	16.40651434	5.50135978
O	16.20885705	26.78069446	5.81359993
O	19.97833907	16.44620765	5.65377819
O	20.11251605	26.91413272	5.90050209
O	12.33226343	13.31310273	6.33077944
O	12.48141870	23.79418292	6.44425199
O	27.72429551	13.13884753	6.40791888
O	27.45548768	23.67008398	6.24665295
O	16.18982805	13.51835863	6.27694538
O	16.16199472	23.85119229	6.28511457
O	19.74812296	13.47070092	6.42136557
O	19.89045101	23.85963479	6.41558206
O	10.61761227	18.62443814	6.36979071
O	10.32014329	29.04962628	6.35607708
O	25.89032516	18.62804835	6.40482551
O	25.73773424	28.95013421	6.46672758
O	14.04343041	18.67202321	6.32635936
O	14.33157867	29.11813600	6.37577737
O	29.51224709	18.47639100	6.36192175
O	29.40646613	28.99134624	6.27310442
O	17.83775198	18.58153990	6.30980953
O	18.12229708	29.01381796	6.46023456
H	15.76179487	14.36134318	7.95741684
H	16.46008867	15.82647986	10.91446948
H	13.57092008	18.36744957	8.68742921
O	14.56253376	16.26747636	7.45523664
O	15.74893029	14.90755337	8.79405148
C	15.15481018	16.06403610	8.60090271
C	15.05575345	17.04245317	9.65752085
C	15.74033437	16.73099729	10.82332951
C	14.17087129	18.15618964	9.62919760
N	13.46915185	19.14906905	15.42173318
N	15.03123887	22.36022166	17.35712353
N	15.46063921	21.08634775	14.63832484
N	12.90142035	20.58921933	18.06991542
C	20.47972012	23.81556453	15.94508108
C	12.74104391	24.43855338	22.47079182
C	8.32655318	16.96915272	17.39355713
C	18.12628078	23.68015536	15.54357692
C	12.89731618	23.76504105	20.15546476
C	10.72270774	17.58515943	17.57384225
C	19.41720871	25.56941570	14.72193158
C	11.79261042	25.82655927	20.72010774
C	9.75194607	15.67112830	18.82238151
C	14.51318751	19.31486727	13.18915735
C	16.86078117	22.87085204	15.66007019
C	13.33857882	22.77679248	19.11595119
C	11.85774653	18.48467130	17.24748863
C	15.33100694	20.37953622	13.46041124
C	16.49762942	21.95997510	14.60334181
C	12.55001077	21.62800544	18.88675179
C	11.99840650	19.53651017	18.16988910
C	16.34720376	20.88722740	12.59685350
C	17.10617051	21.82586006	13.28691157
C	11.35450955	21.19546121	19.62245901
C	11.09260859	19.89609941	19.25239637
C	13.74959597	18.63832455	14.18117654
C	16.09295003	23.07248567	16.87342506
C	14.54911149	23.05783809	18.43149358
C	12.52902108	18.24143423	16.02551634
C	13.06134587	17.35295603	14.00815282
C	16.41113573	24.14867333	17.80574556
C	15.45035956	24.13532338	18.76006353
C	12.31960709	17.16863325	15.14863295
H	13.11503655	16.60225909	13.23169274
H	17.32087944	24.72203944	17.65483636
H	15.37437227	24.82813799	19.61972058
H	11.56407972	16.40445845	15.37583688
H	16.58834483	20.41930389	11.67242068
H	18.08330940	22.31366894	13.06440361
H	10.79117340	21.70460134	20.41128548
H	10.33953840	19.28398421	19.69324101
H	19.50957077	26.46119622	14.13842686
H	11.28413569	26.76201621	20.40922510
H	10.00736840	14.81992370	19.51148687
H	21.36413619	23.22191775	16.25320785
H	12.86656798	24.39158236	23.57337104
H	7.25585133	17.19139535	17.13717860
H	14.90457613	20.97255174	15.51157052
H	13.73254397	20.63062891	17.43070696
C	21.91248543	25.82065532	15.26572811
H	22.69513274	25.29257404	15.82814262
H	21.71989273	26.66884872	15.82375521
H	22.32854424	26.10259231	14.25828646
C	19.10626925	21.91552121	16.98807140
H	18.49533740	21.11610102	16.53462116
H	18.62714786	22.08720066	17.95653677
H	20.10146693	21.44459399	17.23794165
C	16.95949114	25.50834230	14.22284732
H	16.44220086	26.16113033	14.93543271
H	16.25912370	24.78806291	13.77898329
H	17.25499858	26.14592624	13.36409030
C	12.20920930	16.20883324	18.99328448
H	12.75000646	17.08858491	19.40758495
H	12.82193076	15.87372946	18.13736146
H	12.25150553	15.41949593	19.75121073
C	9.25501226	19.03267092	16.10876466
H	8.24960610	19.19439892	15.72588033
H	9.91885372	18.95381204	15.23805256
H	9.66880996	19.89809155	16.62790938
C	7.28424835	15.19522455	18.88599159
H	7.65065784	14.19258912	19.17842831
H	6.44293119	15.10507219	18.16743051
H	6.95104643	15.72611995	19.75815439
C	11.95355762	25.17394191	18.28477503
H	12.59914275	25.90283741	17.79690992
H	10.92791410	25.54866751	18.15388616
H	11.96513923	24.27671383	17.66452988
C	14.13205511	22.42447399	21.86856830
H	15.21947693	22.71257721	21.74017005
H	14.04604278	21.55370777	21.14181924
H	13.87818915	22.03401796	22.87517747
C	11.39807554	26.42606944	23.15249588
H	10.54215601	27.00034360	22.83192330
H	12.13148012	27.17832212	23.39083903
H	11.03995449	25.85388302	24.03856274
C	20.63007400	25.03492507	15.25054285
C	19.26013039	23.17749402	16.20244337
C	18.19133878	24.89657544	14.80959482
C	12.22971876	24.93246424	19.71571354
C	13.24573721	23.52609633	21.53185552
C	11.93903004	25.55679386	22.05296632
C	10.85739378	16.49312037	18.45247354
C	9.38579817	17.80941966	17.00141623
C	8.46934428	15.93737560	18.33009004
H	16.25879669	17.17957341	12.89769465
H	13.43382067	19.82908418	10.86993026
C	14.80141698	18.55236412	11.95816034
C	15.63414424	17.43925269	12.02241716
C	14.07949086	18.93950182	10.76121264

Ti O H C N 0
6-31G*
****

