%chk=f00016096.chk
%mem=24GB
%nproc=12
#p b3lyp/6-31G*

title

0 1
Ti	2.81187400	0.19704000	1.10336000
Ti	0.90594400	5.44057000	1.10336000
Ti	4.71781400	5.44057000	1.10336000
Ti	0.90594400	2.47241000	1.99114000
Ti	4.71781400	2.47241000	1.99114000
Ti	2.81187400	7.71594000	1.99115000
O	2.81187400	8.81302000	0.37332000
O	0.90594400	3.56949000	0.37332000
O	4.71781400	3.56949000	0.37332000
O	0.90594400	0.60134000	1.26110000
O	4.71781400	0.60134000	1.26110000
O	2.81187400	5.84486000	1.26111000
O	2.81187400	2.06812000	1.83340000
O	0.90594400	7.31164000	1.83340000
O	4.71781400	7.31164000	1.83340000
O	0.90594400	4.34349000	2.72118000
O	4.71781400	4.34349000	2.72118000
O	2.81187400	9.58701000	2.72118000
Ti	6.62374588	0.19704000	1.10336000
Ti	21.87123776	0.19704000	1.10336000
Ti	8.52968588	5.44057000	1.10336000
Ti	23.77717776	5.44057000	1.10336000
Ti	8.52968588	2.47241000	1.99114000
Ti	23.77717776	2.47241000	1.99114000
Ti	6.62374588	7.71594000	1.99115000
Ti	21.87123776	7.71594000	1.99115000
Ti	10.43561588	0.19704000	1.10336000
Ti	25.68310776	0.19704000	1.10336000
Ti	14.24749588	0.19704000	1.10336000
Ti	29.49498776	0.19704000	1.10336000
Ti	18.05936588	0.19704000	1.10336000
Ti	12.34155588	5.44057000	1.10336000
Ti	27.58904776	5.44057000	1.10336000
Ti	16.15343588	5.44057000	1.10336000
Ti	19.96530588	5.44057000	1.10336000
Ti	12.34155588	2.47241000	1.99114000
Ti	27.58904776	2.47241000	1.99114000
Ti	16.15343588	2.47241000	1.99114000
Ti	19.96530588	2.47241000	1.99114000
Ti	10.43561588	7.71594000	1.99115000
Ti	25.68310776	7.71594000	1.99115000
Ti	14.24749588	7.71594000	1.99115000
Ti	29.49498776	7.71594000	1.99115000
Ti	18.05936588	7.71594000	1.99115000
O	6.62374588	8.81302000	0.37332000
O	21.87123776	8.81302000	0.37332000
O	8.52968588	3.56949000	0.37332000
O	23.77717776	3.56949000	0.37332000
O	8.52968588	0.60134000	1.26110000
O	23.77717776	0.60134000	1.26110000
O	6.62374588	5.84486000	1.26111000
O	21.87123776	5.84486000	1.26111000
O	6.62374588	2.06812000	1.83340000
O	21.87123776	2.06812000	1.83340000
O	8.52968588	7.31164000	1.83340000
O	23.77717776	7.31164000	1.83340000
O	8.52968588	4.34349000	2.72118000
O	23.77717776	4.34349000	2.72118000
O	6.62374588	9.58701000	2.72118000
O	21.87123776	9.58701000	2.72118000
O	10.43561588	8.81302000	0.37332000
O	25.68310776	8.81302000	0.37332000
O	14.24749588	8.81302000	0.37332000
O	29.49498776	8.81302000	0.37332000
O	18.05936588	8.81302000	0.37332000
O	12.34155588	3.56949000	0.37332000
O	27.58904776	3.56949000	0.37332000
O	16.15343588	3.56949000	0.37332000
O	19.96530588	3.56949000	0.37332000
O	12.34155588	0.60134000	1.26110000
O	27.58904776	0.60134000	1.26110000
O	16.15343588	0.60134000	1.26110000
O	19.96530588	0.60134000	1.26110000
O	10.43561588	5.84486000	1.26111000
O	25.68310776	5.84486000	1.26111000
O	14.24749588	5.84486000	1.26111000
O	29.49498776	5.84486000	1.26111000
O	18.05936588	5.84486000	1.26111000
O	10.43561588	2.06812000	1.83340000
O	25.68310776	2.06812000	1.83340000
O	14.24749588	2.06812000	1.83340000
O	29.49498776	2.06812000	1.83340000
O	18.05936588	2.06812000	1.83340000
O	12.34155588	7.31164000	1.83340000
O	27.58904776	7.31164000	1.83340000
O	16.15343588	7.31164000	1.83340000
O	19.96530588	7.31164000	1.83340000
O	12.34155588	4.34349000	2.72118000
O	27.58904776	4.34349000	2.72118000
O	16.15343588	4.34349000	2.72118000
O	19.96530588	4.34349000	2.72118000
O	10.43561588	9.58701000	2.72118000
O	25.68310776	9.58701000	2.72118000
O	14.24749588	9.58701000	2.72118000
O	29.49498776	9.58701000	2.72118000
O	18.05936588	9.58701000	2.72118000
Ti	2.81187400	10.68408607	1.10336000
Ti	2.81187400	21.17113214	1.10336000
Ti	0.90594400	15.92761607	1.10336000
Ti	0.90594400	26.41466214	1.10336000
Ti	4.71781400	15.92761607	1.10336000
Ti	4.71781400	26.41466214	1.10336000
Ti	0.90594400	12.95945607	1.99114000
Ti	0.90594400	23.44650214	1.99114000
Ti	4.71781400	12.95945607	1.99114000
Ti	4.71781400	23.44650214	1.99114000
Ti	2.81187400	18.20298607	1.99115000
Ti	2.81187400	28.69003214	1.99115000
O	2.81187400	19.30006607	0.37332000
O	2.81187400	29.78711214	0.37332000
O	0.90594400	14.05653607	0.37332000
O	0.90594400	24.54358214	0.37332000
O	4.71781400	14.05653607	0.37332000
O	4.71781400	24.54358214	0.37332000
O	0.90594400	11.08838607	1.26110000
O	0.90594400	21.57543214	1.26110000
O	4.71781400	11.08838607	1.26110000
O	4.71781400	21.57543214	1.26110000
O	2.81187400	16.33190607	1.26111000
O	2.81187400	26.81895214	1.26111000
O	2.81187400	12.55516607	1.83340000
O	2.81187400	23.04221214	1.83340000
O	0.90594400	17.79868607	1.83340000
O	0.90594400	28.28573214	1.83340000
O	4.71781400	17.79868607	1.83340000
O	4.71781400	28.28573214	1.83340000
O	0.90594400	14.83053607	2.72118000
O	0.90594400	25.31758214	2.72118000
O	4.71781400	14.83053607	2.72118000
O	4.71781400	25.31758214	2.72118000
O	2.81187400	20.07405607	2.72118000
O	2.81187400	30.56110214	2.72118000
Ti	6.62374588	10.68408607	1.10336000
Ti	6.62374588	21.17113214	1.10336000
Ti	21.87123776	10.68408607	1.10336000
Ti	21.87123776	21.17113214	1.10336000
Ti	8.52968588	15.92761607	1.10336000
Ti	8.52968588	26.41466214	1.10336000
Ti	23.77717776	15.92761607	1.10336000
Ti	23.77717776	26.41466214	1.10336000
Ti	8.52968588	12.95945607	1.99114000
Ti	8.52968588	23.44650214	1.99114000
Ti	23.77717776	12.95945607	1.99114000
Ti	23.77717776	23.44650214	1.99114000
Ti	6.62374588	18.20298607	1.99115000
Ti	6.62374588	28.69003214	1.99115000
Ti	21.87123776	18.20298607	1.99115000
Ti	21.87123776	28.69003214	1.99115000
Ti	10.43561588	10.68408607	1.10336000
Ti	10.43561588	21.17113214	1.10336000
Ti	25.68310776	10.68408607	1.10336000
Ti	25.68310776	21.17113214	1.10336000
Ti	14.24749588	10.68408607	1.10336000
Ti	14.24749588	21.17113214	1.10336000
Ti	29.49498776	10.68408607	1.10336000
Ti	29.49498776	21.17113214	1.10336000
Ti	18.05936588	10.68408607	1.10336000
Ti	18.05936588	21.17113214	1.10336000
Ti	12.34155588	15.92761607	1.10336000
Ti	12.34155588	26.41466214	1.10336000
Ti	27.58904776	15.92761607	1.10336000
Ti	27.58904776	26.41466214	1.10336000
Ti	16.15343588	15.92761607	1.10336000
Ti	16.15343588	26.41466214	1.10336000
Ti	19.96530588	15.92761607	1.10336000
Ti	19.96530588	26.41466214	1.10336000
Ti	12.34155588	12.95945607	1.99114000
Ti	12.34155588	23.44650214	1.99114000
Ti	27.58904776	12.95945607	1.99114000
Ti	27.58904776	23.44650214	1.99114000
Ti	16.15343588	12.95945607	1.99114000
Ti	16.15343588	23.44650214	1.99114000
Ti	19.96530588	12.95945607	1.99114000
Ti	19.96530588	23.44650214	1.99114000
Ti	10.43561588	18.20298607	1.99115000
Ti	10.43561588	28.69003214	1.99115000
Ti	25.68310776	18.20298607	1.99115000
Ti	25.68310776	28.69003214	1.99115000
Ti	14.24749588	18.20298607	1.99115000
Ti	14.24749588	28.69003214	1.99115000
Ti	29.49498776	18.20298607	1.99115000
Ti	29.49498776	28.69003214	1.99115000
Ti	18.05936588	18.20298607	1.99115000
Ti	18.05936588	28.69003214	1.99115000
O	6.62374588	19.30006607	0.37332000
O	6.62374588	29.78711214	0.37332000
O	21.87123776	19.30006607	0.37332000
O	21.87123776	29.78711214	0.37332000
O	8.52968588	14.05653607	0.37332000
O	8.52968588	24.54358214	0.37332000
O	23.77717776	14.05653607	0.37332000
O	23.77717776	24.54358214	0.37332000
O	8.52968588	11.08838607	1.26110000
O	8.52968588	21.57543214	1.26110000
O	23.77717776	11.08838607	1.26110000
O	23.77717776	21.57543214	1.26110000
O	6.62374588	16.33190607	1.26111000
O	6.62374588	26.81895214	1.26111000
O	21.87123776	16.33190607	1.26111000
O	21.87123776	26.81895214	1.26111000
O	6.62374588	12.55516607	1.83340000
O	6.62374588	23.04221214	1.83340000
O	21.87123776	12.55516607	1.83340000
O	21.87123776	23.04221214	1.83340000
O	8.52968588	17.79868607	1.83340000
O	8.52968588	28.28573214	1.83340000
O	23.77717776	17.79868607	1.83340000
O	23.77717776	28.28573214	1.83340000
O	8.52968588	14.83053607	2.72118000
O	8.52968588	25.31758214	2.72118000
O	23.77717776	14.83053607	2.72118000
O	23.77717776	25.31758214	2.72118000
O	6.62374588	20.07405607	2.72118000
O	6.62374588	30.56110214	2.72118000
O	21.87123776	20.07405607	2.72118000
O	21.87123776	30.56110214	2.72118000
O	10.43561588	19.30006607	0.37332000
O	10.43561588	29.78711214	0.37332000
O	25.68310776	19.30006607	0.37332000
O	25.68310776	29.78711214	0.37332000
O	14.24749588	19.30006607	0.37332000
O	14.24749588	29.78711214	0.37332000
O	29.49498776	19.30006607	0.37332000
O	29.49498776	29.78711214	0.37332000
O	18.05936588	19.30006607	0.37332000
O	18.05936588	29.78711214	0.37332000
O	12.34155588	14.05653607	0.37332000
O	12.34155588	24.54358214	0.37332000
O	27.58904776	14.05653607	0.37332000
O	27.58904776	24.54358214	0.37332000
O	16.15343588	14.05653607	0.37332000
O	16.15343588	24.54358214	0.37332000
O	19.96530588	14.05653607	0.37332000
O	19.96530588	24.54358214	0.37332000
O	12.34155588	11.08838607	1.26110000
O	12.34155588	21.57543214	1.26110000
O	27.58904776	11.08838607	1.26110000
O	27.58904776	21.57543214	1.26110000
O	16.15343588	11.08838607	1.26110000
O	16.15343588	21.57543214	1.26110000
O	19.96530588	11.08838607	1.26110000
O	19.96530588	21.57543214	1.26110000
O	10.43561588	16.33190607	1.26111000
O	10.43561588	26.81895214	1.26111000
O	25.68310776	16.33190607	1.26111000
O	25.68310776	26.81895214	1.26111000
O	14.24749588	16.33190607	1.26111000
O	14.24749588	26.81895214	1.26111000
O	29.49498776	16.33190607	1.26111000
O	29.49498776	26.81895214	1.26111000
O	18.05936588	16.33190607	1.26111000
O	18.05936588	26.81895214	1.26111000
O	10.43561588	12.55516607	1.83340000
O	10.43561588	23.04221214	1.83340000
O	25.68310776	12.55516607	1.83340000
O	25.68310776	23.04221214	1.83340000
O	14.24749588	12.55516607	1.83340000
O	14.24749588	23.04221214	1.83340000
O	29.49498776	12.55516607	1.83340000
O	29.49498776	23.04221214	1.83340000
O	18.05936588	12.55516607	1.83340000
O	18.05936588	23.04221214	1.83340000
O	12.34155588	17.79868607	1.83340000
O	12.34155588	28.28573214	1.83340000
O	27.58904776	17.79868607	1.83340000
O	27.58904776	28.28573214	1.83340000
O	16.15343588	17.79868607	1.83340000
O	16.15343588	28.28573214	1.83340000
O	19.96530588	17.79868607	1.83340000
O	19.96530588	28.28573214	1.83340000
O	12.34155588	14.83053607	2.72118000
O	12.34155588	25.31758214	2.72118000
O	27.58904776	14.83053607	2.72118000
O	27.58904776	25.31758214	2.72118000
O	16.15343588	14.83053607	2.72118000
O	16.15343588	25.31758214	2.72118000
O	19.96530588	14.83053607	2.72118000
O	19.96530588	25.31758214	2.72118000
O	10.43561588	20.07405607	2.72118000
O	10.43561588	30.56110214	2.72118000
O	25.68310776	20.07405607	2.72118000
O	25.68310776	30.56110214	2.72118000
O	14.24749588	20.07405607	2.72118000
O	14.24749588	30.56110214	2.72118000
O	29.49498776	20.07405607	2.72118000
O	29.49498776	30.56110214	2.72118000
O	18.05936588	20.07405607	2.72118000
O	18.05936588	30.56110214	2.72118000
Ti	6.67195527	9.20926535	4.79767285
Ti	6.69106611	6.26128473	5.49165652
Ti	2.83348383	9.13551220	4.75942840
Ti	0.89346440	4.01112043	4.72309686
Ti	4.61034097	3.92895485	4.71886086
Ti	0.83969108	1.07619636	5.62635582
Ti	4.75431625	0.97096488	5.37821466
Ti	2.82134183	6.22162924	5.56034249
O	6.65491219	7.38504298	3.93813167
O	6.54544448	4.31840943	4.85049210
O	6.52548777	0.52184020	5.95139748
O	6.64309392	8.07981697	6.39466771
O	2.89511967	7.32574039	3.94708971
O	0.88866632	2.09140423	3.93355018
O	4.65994882	1.97768460	3.85392234
O	0.92856585	9.53825532	4.85892000
O	4.70999266	9.60084855	4.85594329
O	2.77919843	4.37723630	4.91412840
O	2.79226380	0.56492231	5.71837531
O	0.86272706	5.89784605	5.76143832
O	4.69493553	5.72807915	5.76019074
O	1.01391229	2.82083212	6.36491035
O	4.59175255	2.71103058	6.21385117
O	2.75987132	7.98317794	6.36116765
Ti	21.76203365	9.27364289	4.88553682
Ti	8.42983072	3.98003215	4.67932026
Ti	23.80290128	4.10303293	4.69364994
Ti	8.41325604	1.06782075	5.61646508
Ti	23.77346411	1.12263580	5.65967128
Ti	21.94685441	6.31261336	5.42681823
Ti	10.46275211	9.18758925	4.90338506
Ti	25.63615304	9.30987602	4.73720064
Ti	14.35048966	9.29923123	4.70954083
Ti	29.46052862	9.15316805	4.76294210
Ti	18.04066296	9.21519240	4.83617406
Ti	12.43983246	3.88094304	4.85376420
Ti	27.49166114	3.99716339	4.69742138
Ti	16.19377654	3.90446205	4.78204432
Ti	19.87333533	4.02908347	4.77126172
Ti	12.31361982	0.96127425	5.54063984
Ti	27.51629876	1.13191500	5.61538273
Ti	16.21875207	0.98814436	5.50670020
Ti	20.03620443	1.12575538	5.61398101
Ti	10.48739554	6.21970365	5.40826460
Ti	25.74075181	6.29673775	5.52278519
Ti	14.28902450	6.39166127	5.52226685
Ti	29.44824903	6.24121617	5.41325544
Ti	17.99913110	6.30125867	5.54656614
O	22.06153137	7.42857687	3.93621242
O	8.42902400	2.08848547	4.00299755
O	23.68632491	2.09302658	4.01353411
O	8.58718726	9.71703703	4.85298962
O	23.70936408	9.62638886	4.90197025
O	21.84573234	4.45381483	4.70145690
O	21.82310114	0.67068942	5.96149969
O	8.62462012	5.79932141	5.71314278
O	23.79624802	5.99987027	5.83427982
O	8.70458024	2.83558327	6.38784998
O	23.71851395	3.04880330	6.35811833
O	21.65696833	7.97291242	6.35000462
O	10.46526967	7.30619514	3.95416099
O	25.78567048	7.37997508	3.94784810
O	14.23097009	7.39119292	3.99024771
O	29.51578243	7.29778028	3.88536204
O	17.88283912	7.39694494	4.02461557
O	12.38280398	2.06426694	3.96310608
O	27.62692484	2.05869005	3.93331637
O	16.08617817	2.07867749	3.95403305
O	19.86563527	2.08281827	3.93516263
O	12.38439267	9.62779900	4.81696230
O	27.61796940	9.75259029	4.78018029
O	16.22504052	9.73367921	4.75912429
O	19.88026316	9.67944759	4.79545512
O	10.42530824	4.34329316	4.78379795
O	25.66136478	4.45914800	4.72963135
O	14.31245179	4.28743902	4.83559305
O	29.40892047	4.39551721	4.83806489
O	18.02114791	4.44283002	4.73684818
O	10.34997815	0.59294610	5.72930599
O	25.69385141	0.57914954	5.89144371
O	14.34006993	0.53157497	5.75134707
O	29.45611352	0.61373593	5.76117396
O	18.10622380	0.51751638	5.96177642
O	12.41897253	5.69694326	5.66597232
O	27.55255744	5.72070405	5.79197947
O	16.19202720	5.72745323	5.93726406
O	19.95238096	5.81128668	5.62619288
O	12.27907414	2.77920149	6.39628453
O	27.42458449	2.91190342	6.32741537
O	16.15733739	2.62996526	6.41972884
O	19.76317823	2.83878373	6.41763434
O	10.42294586	7.89718485	6.46638381
O	25.63917467	8.10655780	6.31492826
O	14.44757528	8.15031855	6.27235234
O	29.41063426	7.94564896	6.26397862
O	18.05234908	8.05369434	6.39424069
Ti	6.60371594	19.74692992	4.77308896
Ti	6.65420612	30.14939442	4.84442081
Ti	6.57478644	16.84924352	5.47699798
Ti	6.56624744	27.23329941	5.48251571
Ti	2.80724956	19.72251366	4.65439528
Ti	2.78579739	30.24671107	4.87300249
Ti	0.92851285	14.36010649	4.70234475
Ti	0.85415795	25.00943561	4.74863199
Ti	4.64788835	14.47644447	4.73867122
Ti	4.71017308	24.87905577	4.69622658
Ti	0.94354331	11.41540208	5.41636087
Ti	0.89206297	22.14503084	5.50549831
Ti	4.72057992	11.48323166	5.41149710
Ti	4.67565232	22.00000879	5.50938550
Ti	2.77770951	16.82030472	5.67240922
Ti	2.80493055	27.27480907	5.44682114
O	6.57595410	17.94828271	3.94132423
O	6.71224632	28.34291083	3.94962526
O	6.65636135	15.02218831	4.63896781
O	6.59898446	25.28127812	4.86895442
O	6.62982484	11.15747318	5.57346736
O	6.51778607	21.53605211	5.80388984
O	6.41917385	18.61715297	6.38628465
O	6.53902426	28.95188773	6.33526490
O	2.57504167	17.81294945	3.98130151
O	2.92687356	28.33023617	3.94794793
O	0.73230555	12.50837296	3.95973816
O	0.76065553	23.14278261	3.93546051
O	4.51680761	12.63194837	3.96901848
O	4.80553047	23.04698785	3.93820088
O	0.87122289	20.17812041	4.71850350
O	0.84315515	30.57196136	4.74048668
O	4.68780772	20.15273852	4.89957447
O	4.74885900	30.61870164	4.76427998
O	2.71952855	15.00484828	4.77396191
O	2.79576351	25.39352400	4.78906123
O	2.77605545	11.01083156	5.71227400
O	2.74504285	21.58198378	5.84172081
O	0.96555438	16.79223960	6.32209268
O	0.83596816	26.80562967	5.71564258
O	4.75280187	16.19170605	5.88750686
O	4.70325603	26.79428535	5.75017785
O	1.02756593	13.25571688	6.29591419
O	0.96277751	23.83403716	6.32378626
O	4.61860236	13.19674306	6.30874334
O	4.64567224	23.79155464	6.37738568
O	3.04491333	18.62894666	6.29517955
O	2.72474686	29.05441981	6.51291105
Ti	21.82333052	19.70194841	4.84260059
Ti	21.96687026	30.16515406	4.77880301
Ti	8.48526547	14.54361847	4.74790118
Ti	8.53302058	24.95222405	4.74478193
Ti	23.83261110	14.49304169	4.68390365
Ti	23.72068975	24.92021003	4.82504222
Ti	8.51198141	11.56171715	5.47286995
Ti	8.40447250	22.05941661	5.58268985
Ti	23.73250695	11.61466067	5.49386358
Ti	23.73666848	22.00110567	5.48859312
Ti	21.94818790	16.78413034	5.56007529
Ti	21.88721871	27.27721947	5.65848954
Ti	10.38667286	19.66342432	4.76415729
Ti	10.45223802	30.18440142	4.82884261
Ti	25.65245633	19.70038841	4.77551492
Ti	25.71279885	30.24884156	4.76129894
Ti	14.21359161	19.73375298	4.70526589
Ti	14.31169657	30.16991562	4.71861386
Ti	29.51419953	19.73557954	4.70742274
Ti	29.46797916	30.21274453	4.61299630
Ti	18.00072488	19.79820990	4.71323777
Ti	18.18491481	30.22990237	4.71656462
Ti	12.38906453	14.48325489	4.82980459
Ti	12.26643165	25.04179419	4.80822684
Ti	27.69526373	14.47045972	4.75229607
Ti	27.50553316	24.96507445	4.80406514
Ti	16.23465981	14.52238850	4.77073781
Ti	16.13986921	24.91934982	4.69583560
Ti	19.95061290	14.50721789	4.73147414
Ti	19.95999137	24.97419132	4.93186072
Ti	12.39050238	11.60368919	5.46095135
Ti	12.25305375	22.10720383	5.46060346
Ti	27.75330837	11.55923769	5.53613017
Ti	27.61745246	22.05576369	5.44408631
Ti	16.15738076	11.64487475	5.55015421
Ti	16.10287919	22.03244328	5.49398974
Ti	19.93081633	11.65238063	5.48840100
Ti	19.86600505	22.02908914	5.44729902
Ti	10.40508076	16.76948275	5.59955422
Ti	10.32148151	27.26156946	5.45432751
Ti	25.75874537	16.77580295	5.42855947
Ti	25.65313324	27.33861354	5.55291177
Ti	14.36580260	16.71963356	5.74731702
Ti	14.31032861	27.22408096	5.52264455
Ti	29.60444567	16.87137070	5.58418190
Ti	29.34262637	27.32077012	5.47216844
Ti	18.15673797	16.90910496	5.55365009
Ti	18.01343924	27.30474059	5.35706256
O	22.05409555	17.78371911	3.92655412
O	21.81175653	28.33759752	3.95297683
O	8.59150623	12.53155389	3.94796346
O	8.45308853	22.97954130	3.91994605
O	23.71458748	12.70342872	3.98248884
O	24.01133953	23.12611244	4.03166684
O	8.46524025	20.14572364	4.78227203
O	8.51658746	30.56873826	5.13339865
O	23.73033975	20.13888139	4.82239405
O	23.77336860	30.74497956	4.85146716
O	21.87579735	14.95613044	4.75937139
O	21.88199785	25.36662023	4.94563216
O	21.83605119	11.17018912	5.62260800
O	21.81137661	21.57146407	5.76413294
O	8.39410978	16.29847749	5.72949120
O	8.46401442	26.76999892	5.67334470
O	23.82184687	16.41305197	5.82498702
O	23.80485951	26.73145277	5.97183045
O	8.41069720	13.30694602	6.41740683
O	8.46816219	23.92146439	6.30426658
O	23.68979734	13.40153437	6.38511081
O	23.68464815	23.67237051	6.50317976
O	21.86980300	18.59264696	6.44115443
O	21.90297673	28.91340462	6.47101522
O	10.32830512	17.85076558	3.92239780
O	10.45567534	28.35545096	3.93429677
O	25.58154419	17.85740731	3.85452122
O	25.58263999	28.42621834	4.01300091
O	14.13154498	17.78366299	3.97090966
O	14.29103967	28.27137416	3.93221690
O	29.69305785	17.86131070	3.98166346
O	29.39388452	28.36377998	3.88564995
O	17.82564535	17.85687169	3.92361499
O	18.20714394	28.41374431	3.84539089
O	12.43892818	12.54918159	3.89013377
O	12.11571982	23.16895391	3.91868616
O	27.80223728	12.60009937	3.93674836
O	27.62180154	23.16475423	3.90287281
O	16.39292271	12.66342302	3.92320803
O	16.11834111	22.98624386	3.88106422
O	19.73302872	12.61305784	3.93591911
O	19.86453680	23.10962560	3.97025043
O	12.30169970	20.12923244	4.91679761
O	12.36855048	30.43456465	4.97840531
O	27.54183360	20.07391766	4.85240291
O	27.59214301	30.60000110	4.71156274
O	16.04453525	20.24891130	4.86641766
O	16.23920137	30.52294484	4.82421387
O	19.87375166	20.11745399	4.69318454
O	19.98391981	30.68922177	4.76022899
O	10.39658493	14.91723599	4.86742538
O	10.42219525	25.42222357	4.77756207
O	25.78093380	14.98500613	4.76946280
O	25.57127264	25.45963188	4.79411229
O	14.34280452	14.93198337	4.79304965
O	14.26634249	25.43308504	4.76102389
O	29.62655154	14.90680839	4.94259051
O	29.36545527	25.48065064	4.68554826
O	18.09777195	14.96316908	4.70660832
O	18.08318788	25.33919782	4.82240079
O	10.43627372	10.97550761	5.83698388
O	10.35789474	21.53331367	5.65303443
O	25.72500929	11.11864779	5.74866079
O	25.62156898	21.49957635	5.73017616
O	14.26674942	11.15315159	5.64638809
O	14.08092027	21.55949329	5.69482544
O	29.56176740	10.91390466	5.88295010
O	29.45049531	21.51763944	5.79715936
O	18.03122180	11.07238026	5.85878993
O	18.02783984	21.52572705	5.70963438
O	12.29762806	16.33568609	5.74158383
O	12.31687914	26.85937236	5.69085267
O	27.70650814	16.25384253	5.68941390
O	27.57930768	26.74074965	5.87780333
O	16.31907239	16.30763170	5.93255127
O	16.19257907	26.81216458	5.72075049
O	19.97667068	16.31674840	5.82868790
O	19.98861682	26.88464588	5.64449309
O	12.29141795	13.31758270	6.35220191
O	12.15987927	23.82718598	6.33535195
O	27.66104705	13.35237664	6.28417976
O	27.46868456	23.72468738	6.27683893
O	16.18417029	13.35883947	6.46256499
O	15.98832206	23.84521752	6.35052145
O	19.86971046	13.50230857	6.33362925
O	20.00490372	23.69306658	6.40810770
O	10.19422419	18.62850013	6.34599853
O	10.40522035	28.92478957	6.39255799
O	25.79589102	18.53043902	6.47851701
O	25.89188539	29.08735756	6.40833592
O	14.54072625	18.58836364	6.27498179
O	14.53132934	29.02396187	6.30404276
O	29.37676247	18.66208629	6.40239023
O	29.41667358	29.06939544	6.19279227
O	18.18830361	18.61998007	6.41320371
O	18.08312280	28.99774812	6.37124963
H	12.95376263	14.08726661	7.88296061
H	13.50619495	15.01104937	11.24378161
H	14.37242867	18.25646349	8.48156389
O	14.31594796	15.87841995	7.48237068
O	13.00594390	14.60587243	8.73846903
C	13.72351735	15.63370833	8.69309706
C	13.89071509	16.50585025	9.81594558
C	13.77529905	16.06770752	11.09755575
C	14.13804990	17.91407011	9.55094617
N	13.03941674	19.72466345	15.40512237
N	15.71539085	22.47245790	16.99508310
N	15.42665298	20.73936137	14.29464057
N	13.38085593	21.33291842	17.99193486
C	20.59371670	23.47343805	13.55590253
C	16.30242078	22.95921302	22.68220698
C	8.13071443	19.01045834	18.94659838
C	18.26849317	23.22625431	14.27688605
C	15.21410190	23.39694005	20.56354875
C	10.44168615	18.95004884	18.10987440
C	18.92561286	25.16913203	12.94581133
C	14.77428392	24.80780488	22.53665371
C	9.27984144	16.91919558	18.77190527
C	13.96105864	19.23013947	13.07710928
C	17.18174695	22.42501290	14.93927460
C	14.89122623	22.87927435	19.22940218
C	11.61480094	19.65215088	17.52265959
C	15.13667143	19.98123788	13.21003203
C	16.55968843	21.42520845	14.10824415
C	13.79193379	21.99797000	19.14668862
C	12.30509701	20.54489920	18.33682491
C	16.23452305	20.04738648	12.29929960
C	17.11129986	20.99221501	12.82870609
C	12.97893773	21.56731973	20.25151593
C	11.97539072	20.79945695	19.73452414
C	12.93504638	19.13272474	14.08978912
C	16.72534027	22.94535056	16.17208874
C	15.66374586	23.24482360	18.11748831
C	11.91862649	19.32552309	16.13694929
C	11.64240526	18.48578543	14.01752638
C	17.27476378	24.18357930	16.77757363
C	16.59411127	24.33413343	18.00157373
C	11.07828944	18.63398079	15.23825085
H	11.15223997	18.09705120	13.11521372
H	18.02420273	24.80472191	16.31058260
H	16.73887434	25.19871632	18.69488404
H	10.02524870	18.28506887	15.53815609
H	16.37418564	19.48053741	11.32432600
H	18.00102424	21.43007377	12.40838791
H	13.02481756	21.76542200	21.35215622
H	11.10451951	20.36695595	20.22824013
H	18.61196205	26.11506150	12.46612666
H	14.15217908	25.62045560	22.94082415
H	9.28398568	15.89312217	19.01062149
H	21.57676223	23.07629382	13.33538426
H	16.98266689	22.38203753	23.42863525
H	7.33292902	19.70317535	19.38386062
H	14.67095944	20.97777960	14.93514585
H	13.90937306	21.33921059	17.11443626
C	21.20743219	25.29042520	11.86308090
H	20.99697846	24.84226049	10.83785718
H	22.24811601	25.08913802	12.03857278
H	21.15954558	26.35169104	11.95361556
C	19.99030151	21.35518658	14.70092264
H	19.41057111	20.53063110	14.22628581
H	19.72475399	21.36421608	15.79856744
H	20.99962126	21.03178772	14.55450998
C	16.55374654	24.93746880	13.68814777
H	16.44029595	26.01138306	13.99447355
H	15.92528436	24.39069228	14.41136102
H	16.03750624	24.81416051	12.70174085
C	11.67742744	16.72543503	18.00535995
H	11.56242801	15.77218091	18.54228288
H	12.56292174	17.27760726	18.32849056
H	11.58657963	16.56500764	16.93302936
C	9.18569515	21.18047172	18.47533007
H	9.32453480	21.59800062	19.48407441
H	8.15993174	21.51448088	18.11568000
H	9.91418675	21.61927582	17.78902722
C	6.81104564	16.98794682	19.56270523
H	6.91069616	16.94613091	20.64618031
H	6.65659250	15.93037776	19.23211652
H	5.89579122	17.49861678	19.36076336
C	13.37852306	25.09210694	20.47289746
H	13.51954684	24.86561982	19.41889839
H	13.43624614	26.16401401	20.57695504
H	12.40205071	24.68279941	20.77246010
C	16.93689373	21.48950657	20.73520849
H	17.66981022	21.74715519	20.00196913
H	16.19755260	20.82597212	20.24846715
H	17.48356931	20.91941886	21.54611175
C	15.70739715	24.15420813	24.79237202
H	16.39895344	23.44805573	25.32074137
H	14.68045963	23.84600788	25.17572672
H	15.84139224	25.24589629	25.05603922
C	20.26683974	24.68527416	12.88398623
C	19.61819398	22.70536038	14.20864402
C	17.95272574	24.48381930	13.66484524
C	14.51203371	24.44124616	21.20917407
C	16.15831302	22.66225894	21.31007794
C	15.67203545	24.02794445	23.28017874
C	10.46753324	17.58323966	18.35032504
C	9.27073965	19.69331457	18.52076396
C	8.04331259	17.61565631	19.04411097
H	13.54378361	16.66845079	13.20103753
H	14.39146010	19.81130350	10.58631085
C	13.88279866	18.32343154	11.95513879
C	13.65953169	16.97781026	12.15940298
C	14.24998586	18.72363756	10.65257967

Ti O H C N 0
6-31G*
****

