%chk=f00019935.chk
%mem=24GB
%nproc=12
#p b3lyp/6-31G*

title

0 1
Ti	2.81187400	0.19704000	1.10336000
Ti	0.90594400	5.44057000	1.10336000
Ti	4.71781400	5.44057000	1.10336000
Ti	0.90594400	2.47241000	1.99114000
Ti	4.71781400	2.47241000	1.99114000
Ti	2.81187400	7.71594000	1.99115000
O	2.81187400	8.81302000	0.37332000
O	0.90594400	3.56949000	0.37332000
O	4.71781400	3.56949000	0.37332000
O	0.90594400	0.60134000	1.26110000
O	4.71781400	0.60134000	1.26110000
O	2.81187400	5.84486000	1.26111000
O	2.81187400	2.06812000	1.83340000
O	0.90594400	7.31164000	1.83340000
O	4.71781400	7.31164000	1.83340000
O	0.90594400	4.34349000	2.72118000
O	4.71781400	4.34349000	2.72118000
O	2.81187400	9.58701000	2.72118000
Ti	6.62374588	0.19704000	1.10336000
Ti	21.87123776	0.19704000	1.10336000
Ti	8.52968588	5.44057000	1.10336000
Ti	23.77717776	5.44057000	1.10336000
Ti	8.52968588	2.47241000	1.99114000
Ti	23.77717776	2.47241000	1.99114000
Ti	6.62374588	7.71594000	1.99115000
Ti	21.87123776	7.71594000	1.99115000
Ti	10.43561588	0.19704000	1.10336000
Ti	25.68310776	0.19704000	1.10336000
Ti	14.24749588	0.19704000	1.10336000
Ti	29.49498776	0.19704000	1.10336000
Ti	18.05936588	0.19704000	1.10336000
Ti	12.34155588	5.44057000	1.10336000
Ti	27.58904776	5.44057000	1.10336000
Ti	16.15343588	5.44057000	1.10336000
Ti	19.96530588	5.44057000	1.10336000
Ti	12.34155588	2.47241000	1.99114000
Ti	27.58904776	2.47241000	1.99114000
Ti	16.15343588	2.47241000	1.99114000
Ti	19.96530588	2.47241000	1.99114000
Ti	10.43561588	7.71594000	1.99115000
Ti	25.68310776	7.71594000	1.99115000
Ti	14.24749588	7.71594000	1.99115000
Ti	29.49498776	7.71594000	1.99115000
Ti	18.05936588	7.71594000	1.99115000
O	6.62374588	8.81302000	0.37332000
O	21.87123776	8.81302000	0.37332000
O	8.52968588	3.56949000	0.37332000
O	23.77717776	3.56949000	0.37332000
O	8.52968588	0.60134000	1.26110000
O	23.77717776	0.60134000	1.26110000
O	6.62374588	5.84486000	1.26111000
O	21.87123776	5.84486000	1.26111000
O	6.62374588	2.06812000	1.83340000
O	21.87123776	2.06812000	1.83340000
O	8.52968588	7.31164000	1.83340000
O	23.77717776	7.31164000	1.83340000
O	8.52968588	4.34349000	2.72118000
O	23.77717776	4.34349000	2.72118000
O	6.62374588	9.58701000	2.72118000
O	21.87123776	9.58701000	2.72118000
O	10.43561588	8.81302000	0.37332000
O	25.68310776	8.81302000	0.37332000
O	14.24749588	8.81302000	0.37332000
O	29.49498776	8.81302000	0.37332000
O	18.05936588	8.81302000	0.37332000
O	12.34155588	3.56949000	0.37332000
O	27.58904776	3.56949000	0.37332000
O	16.15343588	3.56949000	0.37332000
O	19.96530588	3.56949000	0.37332000
O	12.34155588	0.60134000	1.26110000
O	27.58904776	0.60134000	1.26110000
O	16.15343588	0.60134000	1.26110000
O	19.96530588	0.60134000	1.26110000
O	10.43561588	5.84486000	1.26111000
O	25.68310776	5.84486000	1.26111000
O	14.24749588	5.84486000	1.26111000
O	29.49498776	5.84486000	1.26111000
O	18.05936588	5.84486000	1.26111000
O	10.43561588	2.06812000	1.83340000
O	25.68310776	2.06812000	1.83340000
O	14.24749588	2.06812000	1.83340000
O	29.49498776	2.06812000	1.83340000
O	18.05936588	2.06812000	1.83340000
O	12.34155588	7.31164000	1.83340000
O	27.58904776	7.31164000	1.83340000
O	16.15343588	7.31164000	1.83340000
O	19.96530588	7.31164000	1.83340000
O	12.34155588	4.34349000	2.72118000
O	27.58904776	4.34349000	2.72118000
O	16.15343588	4.34349000	2.72118000
O	19.96530588	4.34349000	2.72118000
O	10.43561588	9.58701000	2.72118000
O	25.68310776	9.58701000	2.72118000
O	14.24749588	9.58701000	2.72118000
O	29.49498776	9.58701000	2.72118000
O	18.05936588	9.58701000	2.72118000
Ti	2.81187400	10.68408607	1.10336000
Ti	2.81187400	21.17113214	1.10336000
Ti	0.90594400	15.92761607	1.10336000
Ti	0.90594400	26.41466214	1.10336000
Ti	4.71781400	15.92761607	1.10336000
Ti	4.71781400	26.41466214	1.10336000
Ti	0.90594400	12.95945607	1.99114000
Ti	0.90594400	23.44650214	1.99114000
Ti	4.71781400	12.95945607	1.99114000
Ti	4.71781400	23.44650214	1.99114000
Ti	2.81187400	18.20298607	1.99115000
Ti	2.81187400	28.69003214	1.99115000
O	2.81187400	19.30006607	0.37332000
O	2.81187400	29.78711214	0.37332000
O	0.90594400	14.05653607	0.37332000
O	0.90594400	24.54358214	0.37332000
O	4.71781400	14.05653607	0.37332000
O	4.71781400	24.54358214	0.37332000
O	0.90594400	11.08838607	1.26110000
O	0.90594400	21.57543214	1.26110000
O	4.71781400	11.08838607	1.26110000
O	4.71781400	21.57543214	1.26110000
O	2.81187400	16.33190607	1.26111000
O	2.81187400	26.81895214	1.26111000
O	2.81187400	12.55516607	1.83340000
O	2.81187400	23.04221214	1.83340000
O	0.90594400	17.79868607	1.83340000
O	0.90594400	28.28573214	1.83340000
O	4.71781400	17.79868607	1.83340000
O	4.71781400	28.28573214	1.83340000
O	0.90594400	14.83053607	2.72118000
O	0.90594400	25.31758214	2.72118000
O	4.71781400	14.83053607	2.72118000
O	4.71781400	25.31758214	2.72118000
O	2.81187400	20.07405607	2.72118000
O	2.81187400	30.56110214	2.72118000
Ti	6.62374588	10.68408607	1.10336000
Ti	6.62374588	21.17113214	1.10336000
Ti	21.87123776	10.68408607	1.10336000
Ti	21.87123776	21.17113214	1.10336000
Ti	8.52968588	15.92761607	1.10336000
Ti	8.52968588	26.41466214	1.10336000
Ti	23.77717776	15.92761607	1.10336000
Ti	23.77717776	26.41466214	1.10336000
Ti	8.52968588	12.95945607	1.99114000
Ti	8.52968588	23.44650214	1.99114000
Ti	23.77717776	12.95945607	1.99114000
Ti	23.77717776	23.44650214	1.99114000
Ti	6.62374588	18.20298607	1.99115000
Ti	6.62374588	28.69003214	1.99115000
Ti	21.87123776	18.20298607	1.99115000
Ti	21.87123776	28.69003214	1.99115000
Ti	10.43561588	10.68408607	1.10336000
Ti	10.43561588	21.17113214	1.10336000
Ti	25.68310776	10.68408607	1.10336000
Ti	25.68310776	21.17113214	1.10336000
Ti	14.24749588	10.68408607	1.10336000
Ti	14.24749588	21.17113214	1.10336000
Ti	29.49498776	10.68408607	1.10336000
Ti	29.49498776	21.17113214	1.10336000
Ti	18.05936588	10.68408607	1.10336000
Ti	18.05936588	21.17113214	1.10336000
Ti	12.34155588	15.92761607	1.10336000
Ti	12.34155588	26.41466214	1.10336000
Ti	27.58904776	15.92761607	1.10336000
Ti	27.58904776	26.41466214	1.10336000
Ti	16.15343588	15.92761607	1.10336000
Ti	16.15343588	26.41466214	1.10336000
Ti	19.96530588	15.92761607	1.10336000
Ti	19.96530588	26.41466214	1.10336000
Ti	12.34155588	12.95945607	1.99114000
Ti	12.34155588	23.44650214	1.99114000
Ti	27.58904776	12.95945607	1.99114000
Ti	27.58904776	23.44650214	1.99114000
Ti	16.15343588	12.95945607	1.99114000
Ti	16.15343588	23.44650214	1.99114000
Ti	19.96530588	12.95945607	1.99114000
Ti	19.96530588	23.44650214	1.99114000
Ti	10.43561588	18.20298607	1.99115000
Ti	10.43561588	28.69003214	1.99115000
Ti	25.68310776	18.20298607	1.99115000
Ti	25.68310776	28.69003214	1.99115000
Ti	14.24749588	18.20298607	1.99115000
Ti	14.24749588	28.69003214	1.99115000
Ti	29.49498776	18.20298607	1.99115000
Ti	29.49498776	28.69003214	1.99115000
Ti	18.05936588	18.20298607	1.99115000
Ti	18.05936588	28.69003214	1.99115000
O	6.62374588	19.30006607	0.37332000
O	6.62374588	29.78711214	0.37332000
O	21.87123776	19.30006607	0.37332000
O	21.87123776	29.78711214	0.37332000
O	8.52968588	14.05653607	0.37332000
O	8.52968588	24.54358214	0.37332000
O	23.77717776	14.05653607	0.37332000
O	23.77717776	24.54358214	0.37332000
O	8.52968588	11.08838607	1.26110000
O	8.52968588	21.57543214	1.26110000
O	23.77717776	11.08838607	1.26110000
O	23.77717776	21.57543214	1.26110000
O	6.62374588	16.33190607	1.26111000
O	6.62374588	26.81895214	1.26111000
O	21.87123776	16.33190607	1.26111000
O	21.87123776	26.81895214	1.26111000
O	6.62374588	12.55516607	1.83340000
O	6.62374588	23.04221214	1.83340000
O	21.87123776	12.55516607	1.83340000
O	21.87123776	23.04221214	1.83340000
O	8.52968588	17.79868607	1.83340000
O	8.52968588	28.28573214	1.83340000
O	23.77717776	17.79868607	1.83340000
O	23.77717776	28.28573214	1.83340000
O	8.52968588	14.83053607	2.72118000
O	8.52968588	25.31758214	2.72118000
O	23.77717776	14.83053607	2.72118000
O	23.77717776	25.31758214	2.72118000
O	6.62374588	20.07405607	2.72118000
O	6.62374588	30.56110214	2.72118000
O	21.87123776	20.07405607	2.72118000
O	21.87123776	30.56110214	2.72118000
O	10.43561588	19.30006607	0.37332000
O	10.43561588	29.78711214	0.37332000
O	25.68310776	19.30006607	0.37332000
O	25.68310776	29.78711214	0.37332000
O	14.24749588	19.30006607	0.37332000
O	14.24749588	29.78711214	0.37332000
O	29.49498776	19.30006607	0.37332000
O	29.49498776	29.78711214	0.37332000
O	18.05936588	19.30006607	0.37332000
O	18.05936588	29.78711214	0.37332000
O	12.34155588	14.05653607	0.37332000
O	12.34155588	24.54358214	0.37332000
O	27.58904776	14.05653607	0.37332000
O	27.58904776	24.54358214	0.37332000
O	16.15343588	14.05653607	0.37332000
O	16.15343588	24.54358214	0.37332000
O	19.96530588	14.05653607	0.37332000
O	19.96530588	24.54358214	0.37332000
O	12.34155588	11.08838607	1.26110000
O	12.34155588	21.57543214	1.26110000
O	27.58904776	11.08838607	1.26110000
O	27.58904776	21.57543214	1.26110000
O	16.15343588	11.08838607	1.26110000
O	16.15343588	21.57543214	1.26110000
O	19.96530588	11.08838607	1.26110000
O	19.96530588	21.57543214	1.26110000
O	10.43561588	16.33190607	1.26111000
O	10.43561588	26.81895214	1.26111000
O	25.68310776	16.33190607	1.26111000
O	25.68310776	26.81895214	1.26111000
O	14.24749588	16.33190607	1.26111000
O	14.24749588	26.81895214	1.26111000
O	29.49498776	16.33190607	1.26111000
O	29.49498776	26.81895214	1.26111000
O	18.05936588	16.33190607	1.26111000
O	18.05936588	26.81895214	1.26111000
O	10.43561588	12.55516607	1.83340000
O	10.43561588	23.04221214	1.83340000
O	25.68310776	12.55516607	1.83340000
O	25.68310776	23.04221214	1.83340000
O	14.24749588	12.55516607	1.83340000
O	14.24749588	23.04221214	1.83340000
O	29.49498776	12.55516607	1.83340000
O	29.49498776	23.04221214	1.83340000
O	18.05936588	12.55516607	1.83340000
O	18.05936588	23.04221214	1.83340000
O	12.34155588	17.79868607	1.83340000
O	12.34155588	28.28573214	1.83340000
O	27.58904776	17.79868607	1.83340000
O	27.58904776	28.28573214	1.83340000
O	16.15343588	17.79868607	1.83340000
O	16.15343588	28.28573214	1.83340000
O	19.96530588	17.79868607	1.83340000
O	19.96530588	28.28573214	1.83340000
O	12.34155588	14.83053607	2.72118000
O	12.34155588	25.31758214	2.72118000
O	27.58904776	14.83053607	2.72118000
O	27.58904776	25.31758214	2.72118000
O	16.15343588	14.83053607	2.72118000
O	16.15343588	25.31758214	2.72118000
O	19.96530588	14.83053607	2.72118000
O	19.96530588	25.31758214	2.72118000
O	10.43561588	20.07405607	2.72118000
O	10.43561588	30.56110214	2.72118000
O	25.68310776	20.07405607	2.72118000
O	25.68310776	30.56110214	2.72118000
O	14.24749588	20.07405607	2.72118000
O	14.24749588	30.56110214	2.72118000
O	29.49498776	20.07405607	2.72118000
O	29.49498776	30.56110214	2.72118000
O	18.05936588	20.07405607	2.72118000
O	18.05936588	30.56110214	2.72118000
Ti	6.50406749	9.34433168	4.82905609
Ti	6.61894532	6.45146822	5.56742217
Ti	2.68785719	9.26388910	4.71039464
Ti	1.00393896	4.02352106	4.79634733
Ti	4.71870104	4.04654307	4.83869488
Ti	0.94265942	1.03922514	5.41818577
Ti	4.72094498	1.11597544	5.54232016
Ti	2.77551347	6.36634317	5.52746397
O	6.70097511	7.44236023	3.94841148
O	6.56312456	4.49222690	4.73094984
O	6.68518147	0.69749628	5.70160043
O	6.51437563	8.13804552	6.40642101
O	2.72863038	7.44661607	3.91554583
O	0.91615756	2.19065256	3.98723076
O	4.69005428	2.12531361	3.95532299
O	0.80785106	9.63104138	4.76583750
O	4.60215769	9.71214974	4.77256518
O	2.85752135	4.45647415	4.82056098
O	2.81436558	0.61226177	5.89744029
O	0.94593774	5.76658107	5.91885241
O	4.61404535	5.83993707	5.78090153
O	0.86409953	2.85178185	6.32311018
O	4.77057604	2.89966119	6.31497599
O	2.93128782	8.15765125	6.35588314
Ti	21.87781282	9.15521015	4.72338532
Ti	8.49121006	4.11312013	4.73959067
Ti	23.81237240	3.93518874	4.69725687
Ti	8.63193177	1.18973413	5.46920004
Ti	23.71937665	1.01422804	5.47423931
Ti	21.98238560	6.22949216	5.54200544
Ti	10.44660413	9.28456164	4.84379382
Ti	25.72853197	9.13448366	4.71456482
Ti	14.32944562	9.32163398	4.84022618
Ti	29.40897640	9.26714502	4.70441402
Ti	18.02095215	9.17590248	4.88171900
Ti	12.33531018	3.99137028	4.78756793
Ti	27.73180295	3.96562009	4.83016054
Ti	16.14567126	4.00401685	4.80663640
Ti	19.92897267	3.97759201	4.69266198
Ti	12.42458125	1.06278172	5.51901431
Ti	27.61238618	1.00956070	5.42585487
Ti	16.06287485	1.07463728	5.44006745
Ti	19.93704663	1.10259397	5.61539337
Ti	10.45034366	6.30698161	5.40807564
Ti	25.75362460	6.25004012	5.51817787
Ti	14.28759487	6.36908945	5.52502777
Ti	29.64603461	6.32605487	5.47023912
Ti	18.09642414	6.22860412	5.50698311
O	21.96976342	7.26651059	3.94011244
O	8.64544415	2.24261221	3.96468756
O	23.79972448	2.09968263	3.88001281
O	8.44830637	9.65528290	4.89430328
O	23.78235022	9.56432716	4.76141746
O	21.93017731	4.46126212	4.62333179
O	21.83666287	0.52365159	5.97419930
O	8.51102795	5.85055651	5.80481583
O	23.88926064	5.63644498	5.96344659
O	8.29260429	2.95574479	6.24584002
O	23.59392244	2.89725747	6.34254045
O	22.16363581	7.95973815	6.36707813
O	10.51835471	7.38605251	3.95268577
O	25.65341449	7.19981166	3.92857535
O	14.22649123	7.41875137	3.97714361
O	29.46783404	7.41221541	3.91659444
O	17.98857192	7.39927687	4.00174125
O	12.38224620	2.09328787	3.96212808
O	27.66566404	2.15301371	3.95344748
O	15.99437264	2.14087972	3.85727940
O	20.03705052	2.08176122	3.87792018
O	12.32226775	9.68945521	4.87186699
O	27.56191082	9.67445809	4.77160786
O	16.23661036	9.79700463	4.59027519
O	20.01250284	9.48061561	4.84400152
O	10.45495046	4.48548326	4.56351281
O	25.77046549	4.38242866	4.81045168
O	14.18894485	4.48322389	4.75790498
O	29.60850756	4.54036951	4.61622918
O	18.09886679	4.42703555	4.64714824
O	10.47104181	0.65999607	5.91052253
O	25.65701824	0.59592067	5.72177217
O	14.30493096	1.02895681	6.04172955
O	29.53651280	0.48588306	5.78619048
O	17.96329828	0.50422973	5.73162075
O	12.31764036	5.76756246	5.78279945
O	27.74372491	5.68768063	5.71528700
O	16.15958793	5.68962027	5.82314036
O	20.00519889	5.74174099	5.67478366
O	12.00855618	2.71930598	6.34999843
O	27.84069171	2.74607372	6.40834254
O	16.31539689	2.84249355	6.28759678
O	19.86804212	2.85883710	6.29148782
O	10.26985277	8.05442788	6.34784057
O	25.94710719	7.98996585	6.36134127
O	14.33652435	8.16159468	6.38584382
O	29.41868879	7.96361896	6.34876428
O	18.08040915	7.98907392	6.37681509
Ti	6.63479436	19.54934319	4.68007993
Ti	6.64131360	30.24158273	4.70704386
Ti	6.56626116	16.70072215	5.50673466
Ti	6.54149264	27.31799445	5.49987104
Ti	2.98238053	19.77115483	4.74192694
Ti	2.85386050	30.14991269	4.79224836
Ti	0.89041146	14.32306890	4.65617427
Ti	0.84475999	24.94781810	4.61850889
Ti	4.49338499	14.53910835	4.92004024
Ti	4.66692818	24.99230141	4.74715335
Ti	0.85224170	11.51019062	5.51925631
Ti	1.01730951	22.03911742	5.50388448
Ti	4.58648006	11.61302474	5.47294575
Ti	4.82555127	22.16973387	5.60792407
Ti	2.70223411	16.86635074	5.64304090
Ti	2.74993417	27.22350274	5.52271316
O	6.66555166	17.66137612	3.95488297
O	6.55478877	28.33261030	3.89000862
O	6.50014189	14.77371815	4.71945675
O	6.54048653	25.37770720	4.75293601
O	6.43251535	11.07400387	5.85595879
O	6.73650389	22.09076785	6.09527446
O	6.36468206	18.51754517	6.43238481
O	6.68547629	29.06502578	6.31944014
O	2.92323045	17.82874485	3.95761923
O	2.95852993	28.36405223	3.97147374
O	0.93092699	12.57472148	3.93692241
O	0.86272854	23.06217318	3.89769407
O	4.59531118	12.66835407	3.94918758
O	4.81855643	23.07851223	3.96442503
O	0.99358991	20.13158864	4.89065392
O	0.95848394	30.62571688	4.73560589
O	4.86195418	20.33869009	4.80688487
O	4.80834978	30.71824945	4.78418905
O	2.72874229	15.10391027	4.70305830
O	2.70150633	25.33403800	4.72661159
O	2.67366218	11.02272228	5.77151195
O	2.94204645	21.63368982	5.78429416
O	0.89004096	16.72752945	6.23178972
O	0.91521765	26.70008825	5.79819733
O	4.73005361	16.31122760	6.03697623
O	4.64165082	26.73891791	5.88260459
O	0.94319933	13.27890022	6.27021641
O	0.85493906	23.78375078	6.36425942
O	4.44237622	13.33276531	6.46505436
O	4.42971385	23.85788431	6.40622195
O	3.02465200	18.63489704	6.23812269
O	2.90194547	28.99640759	6.31384688
Ti	21.82924887	19.60447647	4.68252243
Ti	21.74412330	30.23647571	4.77782281
Ti	8.47708261	14.39094157	4.80665713
Ti	8.41658918	25.07545034	4.78701266
Ti	23.85232836	14.40658744	4.74543524
Ti	23.74317353	25.07264087	4.67090011
Ti	8.46519676	11.52917817	5.60676275
Ti	8.57924227	22.15576497	5.53453281
Ti	23.77547924	11.45555111	5.44014291
Ti	23.73390070	22.10044294	5.47657508
Ti	21.92661626	16.64485340	5.43110215
Ti	21.79905067	27.34407918	5.44113793
Ti	10.37756899	19.70115797	4.68965473
Ti	10.44415850	30.27045427	4.83605024
Ti	25.78342784	19.81671599	4.74994868
Ti	25.62494714	30.28093667	4.71786844
Ti	14.21541668	19.63788528	4.85691133
Ti	14.17159532	30.04663200	4.66872827
Ti	29.54570434	19.67378261	4.70431715
Ti	29.52235348	30.13732826	4.81752631
Ti	18.01849111	19.74225284	4.83210529
Ti	17.83625637	30.14352812	4.68609705
Ti	12.28140699	14.42112250	4.72818234
Ti	12.25682381	24.87406001	4.70292827
Ti	27.68082512	14.45245371	4.76152448
Ti	27.59453730	25.05437863	4.75216779
Ti	16.20054222	14.48729916	4.68398805
Ti	16.09197279	24.87404590	4.77301166
Ti	19.96046192	14.39008411	4.84789068
Ti	19.92489323	24.93989391	4.66206832
Ti	12.30359586	11.50404914	5.55442372
Ti	12.38156946	21.94099820	5.41303257
Ti	27.59939300	11.54395415	5.49210734
Ti	27.70823777	22.10207569	5.50811085
Ti	16.26634764	11.55145678	5.44654025
Ti	16.09210663	21.98005702	5.54558434
Ti	19.91121576	11.45028279	5.39717168
Ti	19.89954650	22.03969126	5.54843847
Ti	10.30529434	16.77382264	5.49334368
Ti	10.33012208	27.33919476	5.53802932
Ti	25.59743042	16.76392769	5.34741307
Ti	25.80286918	27.31968675	5.50148356
Ti	14.22412165	16.77426523	5.72272279
Ti	14.11358102	27.10677681	5.49108213
Ti	29.44572895	16.86513234	5.61524707
Ti	29.50470665	27.23151979	5.51803954
Ti	18.09811562	16.73305829	5.57614240
Ti	17.90998894	27.22735373	5.55250056
O	21.78724762	17.85139367	3.92205156
O	22.01643358	28.35395815	3.88322619
O	8.50528571	12.54241486	4.00331367
O	8.32329116	23.24758415	4.00845875
O	23.80721230	12.49766327	3.89326107
O	23.80350895	23.00365968	3.88210213
O	8.33623328	20.22615654	4.91643981
O	8.64318586	30.79986229	4.65397141
O	23.79834410	20.14759089	4.91101447
O	23.68566949	30.61592985	4.96286632
O	21.85732668	14.85670893	4.66627427
O	21.87969248	25.37641993	4.77813383
O	21.87573494	11.06110988	5.76333414
O	21.87761158	21.62322072	5.65251008
O	8.43567924	16.15890345	5.80955377
O	8.40593757	26.80256518	5.74994110
O	23.77439505	16.10495425	5.73643472
O	23.77602765	26.85823107	5.70638793
O	8.40257014	13.30488285	6.50004089
O	8.87519513	23.93054912	6.38651175
O	23.82801082	13.22704083	6.28473447
O	23.70141131	23.81279482	6.34762759
O	21.79438768	18.39151992	6.35585120
O	21.58873084	29.09624048	6.27807760
O	10.14676757	17.74829068	3.87614469
O	10.46988354	28.45448653	3.96566135
O	25.64337904	17.81736945	3.87075530
O	25.61538625	28.31717964	3.92160954
O	14.25175542	17.83873151	3.96200742
O	14.13199161	28.18704711	3.84441324
O	29.58424965	17.81963494	3.96209677
O	29.48891424	28.25375342	3.91290931
O	18.21253630	17.76175750	3.95500231
O	17.93280598	28.29828269	3.92305801
O	12.34743669	12.46518060	3.90438874
O	12.19053018	23.07077584	3.91504475
O	27.64587491	12.59261794	3.92933587
O	27.72079621	23.17646225	3.92474486
O	16.36631721	12.61703035	3.90824336
O	16.05971496	23.02312458	3.94931163
O	20.06569807	12.58898170	3.94801105
O	19.74901010	23.06047654	3.95329537
O	12.35242136	20.08883827	4.67936167
O	12.39786961	30.64839372	4.88476765
O	27.67437244	20.23193261	4.65731522
O	27.58609561	30.54359662	4.69342959
O	16.13980457	19.98578943	4.79333176
O	15.98065187	30.62608176	4.82564705
O	19.94697995	20.08614657	5.03346324
O	19.89537404	30.69585370	4.70406760
O	10.42274294	14.78893780	4.83262629
O	10.38763593	25.52023065	4.71549732
O	25.75303681	14.81898810	4.68699411
O	25.69813776	25.42817109	4.80574424
O	14.21678759	14.87675386	4.81770813
O	14.13781544	25.21351888	4.71990947
O	29.57741370	14.96836275	4.97619535
O	29.54768429	25.36629571	4.72455650
O	18.11855247	14.89120264	4.91159585
O	18.01717349	25.31586175	4.83672079
O	10.39108620	11.07795735	5.92845713
O	10.50436908	21.61009330	5.64498629
O	25.74998512	11.02886757	5.72039176
O	25.73299341	21.61885835	5.86484622
O	14.24900379	11.15593183	5.78486218
O	14.22891884	21.46176323	5.72015945
O	29.43122841	11.08724773	5.68378508
O	29.63672871	21.64948211	5.80779222
O	18.07132729	11.02793639	5.77157625
O	17.98590181	21.63703827	5.77004535
O	12.24781907	16.42417298	5.57841127
O	12.28168848	26.84172534	5.82320795
O	27.51817286	16.26230717	5.70561361
O	27.70851474	26.71558363	5.94900391
O	16.20425071	16.34863111	5.56454235
O	16.03864295	26.69990520	5.72094479
O	20.01258720	16.14983978	5.93157411
O	19.94895955	26.72806263	5.73285540
O	12.46373504	13.26230655	6.36609844
O	12.41667312	23.66899801	6.38898980
O	27.58928211	13.40667351	6.33097810
O	27.68121139	23.79562479	6.46301724
O	16.31794911	13.36679079	6.27731109
O	16.01858038	23.79403083	6.36235374
O	20.00118281	13.15526094	6.42303501
O	20.00648390	23.77994319	6.37728209
O	10.32144530	18.55617707	6.20695608
O	10.30259726	29.11488615	6.38905615
O	25.86450068	18.55195802	6.27531594
O	25.75739839	29.05908018	6.34702243
O	14.11424097	18.60703187	6.39687677
O	14.27115221	28.91434205	6.30193445
O	29.18084890	18.63095497	6.32876515
O	29.56953787	28.97538338	6.46783229
O	18.11780975	18.57802212	6.41208091
O	18.03169429	29.03327279	6.32984227
H	12.73944880	14.53078531	7.61194649
H	12.50998773	15.31134667	11.11736427
H	15.63499522	17.79861308	9.10743136
O	14.39540507	16.14373754	7.58777497
O	12.78034872	14.94790237	8.53582922
C	13.76387814	15.79588588	8.74209285
C	14.07099944	16.39238792	10.02765124
C	13.30256940	16.06159485	11.16983553
C	14.98783154	17.49306299	10.04305861
N	12.93406889	20.04670711	15.31669132
N	15.88894872	22.05723080	17.26065708
N	15.84619085	20.27744430	14.86250974
N	13.04772194	21.72961147	17.78826807
C	21.45386994	20.45866438	16.29106171
C	15.01087417	24.75890127	22.52689735
C	7.22583477	20.96582571	17.00170828
C	19.28420935	21.32116170	15.84600266
C	14.74708354	24.11059159	20.17694168
C	9.56778516	20.27677980	17.03745390
C	21.23691154	22.41843823	14.94194960
C	14.88702381	26.46754227	20.81600960
C	7.75913923	18.64726467	17.49728921
C	14.26686473	18.92783714	13.48595438
C	17.78905935	21.28071482	15.90276613
C	14.63917437	23.02644444	19.20917056
C	11.02223085	20.56549870	16.83351007
C	15.55063338	19.33024242	13.92060506
C	17.14537608	20.49696895	14.98472153
C	13.36564485	22.44918635	18.93944687
C	11.74148771	21.30380494	17.79840557
C	16.89251768	18.87253088	13.48674741
C	17.83405318	19.57938037	14.11626087
C	12.16498109	22.60969628	19.66107978
C	11.20250791	21.86300540	18.97506419
C	13.03599144	19.31000557	14.12967308
C	17.21529435	22.00747426	16.94424028
C	15.79427795	22.85735336	18.42286596
C	11.58098677	19.99156605	15.69227261
C	11.74272023	18.91039675	13.64930151
C	17.98154246	22.81201646	17.87233806
C	17.10528862	23.37761075	18.74184402
C	10.86318436	19.22787098	14.65028355
H	11.52190335	18.42340234	12.71387559
H	19.04144371	22.99241149	17.79815897
H	17.30164255	23.87007235	19.74332323
H	9.79491777	18.92316879	14.71471908
H	17.02946978	18.03703391	12.79684865
H	18.93323683	19.51429302	14.00239139
H	11.99895909	23.14568342	20.58652995
H	10.15282693	21.77221604	19.29968103
H	21.73637426	23.13487496	14.29780922
H	14.90790427	27.52747131	20.52790019
H	7.46858284	17.62684009	17.89058021
H	21.95703099	19.65985823	16.81094069
H	15.07376223	24.44219835	23.55982467
H	6.39327838	21.67476283	16.83583197
H	15.02477852	20.76782649	15.29976835
H	13.73531112	21.48287046	17.04507204
C	23.59411445	21.47794386	15.45808626
H	23.94853330	21.63898495	14.40607296
H	24.01118424	20.55250624	15.79067282
H	23.99362589	22.31031229	16.05228754
C	19.53793500	19.04455761	17.03657286
H	20.24615711	18.19899340	17.05399053
H	18.65103589	18.61046517	16.57223168
H	19.35634354	19.17164384	18.09857945
C	18.99685156	23.39801078	14.52807619
H	19.60816374	24.24682058	14.29954238
H	18.11673511	23.58366436	15.20710941
H	18.55937820	23.07709708	13.56059302
C	10.15607619	17.80252728	17.50918920
H	9.90788236	17.05332464	18.20780155
H	11.14850977	18.17538703	17.93791731
H	10.36896521	17.28697596	16.57156426
C	9.00104214	22.62743770	16.33994804
H	8.33545058	23.44968051	16.53505993
H	9.15715298	22.59229819	15.27150537
H	9.88201054	23.00596572	16.85183252
C	5.33067135	19.48868410	17.58072905
H	5.16061218	19.87947006	18.62152505
H	4.95633409	18.50624117	17.46511180
H	4.65852061	20.04252105	16.87541639
C	14.76493130	25.83659352	18.36808117
H	13.70221362	25.97809181	17.96875872
H	15.21667531	25.04727776	17.69136153
H	15.33570432	26.72914692	18.27866771
C	14.77720355	22.36996302	22.05912725
H	14.94112778	21.66575979	21.25209289
H	13.76620471	22.09980576	22.40407150
H	15.41973053	22.10645533	22.89631012
C	15.00039043	27.13165216	23.26976868
H	15.31526650	28.08090233	22.88508515
H	15.71282870	26.83390142	24.08694465
H	14.04177625	27.24689894	23.78290278
C	22.07328212	21.43402128	15.50108433
C	20.07520853	20.32174850	16.38690538
C	19.85367513	22.34866187	15.08538591
C	14.83297244	25.46310923	19.82217622
C	14.81911115	23.77235780	21.56577949
C	15.01033111	26.12364698	22.13948869
C	9.15769450	18.87749952	17.30237036
C	8.55639296	21.27319892	16.80115858
C	6.81538029	19.66784563	17.34859068
H	12.64351339	16.59834508	13.11949168
H	15.73836594	19.06046369	11.18752255
C	14.23239970	17.95765542	12.39423809
C	13.29193902	16.91252514	12.31853535
C	15.09368436	18.15973475	11.23517548

Ti O H C N 0
6-31G*
****

