%chk=f00016934.chk
%mem=24GB
%nproc=12
#p b3lyp/6-31G*

title

0 1
Ti	2.81187400	0.19704000	1.10336000
Ti	0.90594400	5.44057000	1.10336000
Ti	4.71781400	5.44057000	1.10336000
Ti	0.90594400	2.47241000	1.99114000
Ti	4.71781400	2.47241000	1.99114000
Ti	2.81187400	7.71594000	1.99115000
O	2.81187400	8.81302000	0.37332000
O	0.90594400	3.56949000	0.37332000
O	4.71781400	3.56949000	0.37332000
O	0.90594400	0.60134000	1.26110000
O	4.71781400	0.60134000	1.26110000
O	2.81187400	5.84486000	1.26111000
O	2.81187400	2.06812000	1.83340000
O	0.90594400	7.31164000	1.83340000
O	4.71781400	7.31164000	1.83340000
O	0.90594400	4.34349000	2.72118000
O	4.71781400	4.34349000	2.72118000
O	2.81187400	9.58701000	2.72118000
Ti	6.62374588	0.19704000	1.10336000
Ti	21.87123776	0.19704000	1.10336000
Ti	8.52968588	5.44057000	1.10336000
Ti	23.77717776	5.44057000	1.10336000
Ti	8.52968588	2.47241000	1.99114000
Ti	23.77717776	2.47241000	1.99114000
Ti	6.62374588	7.71594000	1.99115000
Ti	21.87123776	7.71594000	1.99115000
Ti	10.43561588	0.19704000	1.10336000
Ti	25.68310776	0.19704000	1.10336000
Ti	14.24749588	0.19704000	1.10336000
Ti	29.49498776	0.19704000	1.10336000
Ti	18.05936588	0.19704000	1.10336000
Ti	12.34155588	5.44057000	1.10336000
Ti	27.58904776	5.44057000	1.10336000
Ti	16.15343588	5.44057000	1.10336000
Ti	19.96530588	5.44057000	1.10336000
Ti	12.34155588	2.47241000	1.99114000
Ti	27.58904776	2.47241000	1.99114000
Ti	16.15343588	2.47241000	1.99114000
Ti	19.96530588	2.47241000	1.99114000
Ti	10.43561588	7.71594000	1.99115000
Ti	25.68310776	7.71594000	1.99115000
Ti	14.24749588	7.71594000	1.99115000
Ti	29.49498776	7.71594000	1.99115000
Ti	18.05936588	7.71594000	1.99115000
O	6.62374588	8.81302000	0.37332000
O	21.87123776	8.81302000	0.37332000
O	8.52968588	3.56949000	0.37332000
O	23.77717776	3.56949000	0.37332000
O	8.52968588	0.60134000	1.26110000
O	23.77717776	0.60134000	1.26110000
O	6.62374588	5.84486000	1.26111000
O	21.87123776	5.84486000	1.26111000
O	6.62374588	2.06812000	1.83340000
O	21.87123776	2.06812000	1.83340000
O	8.52968588	7.31164000	1.83340000
O	23.77717776	7.31164000	1.83340000
O	8.52968588	4.34349000	2.72118000
O	23.77717776	4.34349000	2.72118000
O	6.62374588	9.58701000	2.72118000
O	21.87123776	9.58701000	2.72118000
O	10.43561588	8.81302000	0.37332000
O	25.68310776	8.81302000	0.37332000
O	14.24749588	8.81302000	0.37332000
O	29.49498776	8.81302000	0.37332000
O	18.05936588	8.81302000	0.37332000
O	12.34155588	3.56949000	0.37332000
O	27.58904776	3.56949000	0.37332000
O	16.15343588	3.56949000	0.37332000
O	19.96530588	3.56949000	0.37332000
O	12.34155588	0.60134000	1.26110000
O	27.58904776	0.60134000	1.26110000
O	16.15343588	0.60134000	1.26110000
O	19.96530588	0.60134000	1.26110000
O	10.43561588	5.84486000	1.26111000
O	25.68310776	5.84486000	1.26111000
O	14.24749588	5.84486000	1.26111000
O	29.49498776	5.84486000	1.26111000
O	18.05936588	5.84486000	1.26111000
O	10.43561588	2.06812000	1.83340000
O	25.68310776	2.06812000	1.83340000
O	14.24749588	2.06812000	1.83340000
O	29.49498776	2.06812000	1.83340000
O	18.05936588	2.06812000	1.83340000
O	12.34155588	7.31164000	1.83340000
O	27.58904776	7.31164000	1.83340000
O	16.15343588	7.31164000	1.83340000
O	19.96530588	7.31164000	1.83340000
O	12.34155588	4.34349000	2.72118000
O	27.58904776	4.34349000	2.72118000
O	16.15343588	4.34349000	2.72118000
O	19.96530588	4.34349000	2.72118000
O	10.43561588	9.58701000	2.72118000
O	25.68310776	9.58701000	2.72118000
O	14.24749588	9.58701000	2.72118000
O	29.49498776	9.58701000	2.72118000
O	18.05936588	9.58701000	2.72118000
Ti	2.81187400	10.68408607	1.10336000
Ti	2.81187400	21.17113214	1.10336000
Ti	0.90594400	15.92761607	1.10336000
Ti	0.90594400	26.41466214	1.10336000
Ti	4.71781400	15.92761607	1.10336000
Ti	4.71781400	26.41466214	1.10336000
Ti	0.90594400	12.95945607	1.99114000
Ti	0.90594400	23.44650214	1.99114000
Ti	4.71781400	12.95945607	1.99114000
Ti	4.71781400	23.44650214	1.99114000
Ti	2.81187400	18.20298607	1.99115000
Ti	2.81187400	28.69003214	1.99115000
O	2.81187400	19.30006607	0.37332000
O	2.81187400	29.78711214	0.37332000
O	0.90594400	14.05653607	0.37332000
O	0.90594400	24.54358214	0.37332000
O	4.71781400	14.05653607	0.37332000
O	4.71781400	24.54358214	0.37332000
O	0.90594400	11.08838607	1.26110000
O	0.90594400	21.57543214	1.26110000
O	4.71781400	11.08838607	1.26110000
O	4.71781400	21.57543214	1.26110000
O	2.81187400	16.33190607	1.26111000
O	2.81187400	26.81895214	1.26111000
O	2.81187400	12.55516607	1.83340000
O	2.81187400	23.04221214	1.83340000
O	0.90594400	17.79868607	1.83340000
O	0.90594400	28.28573214	1.83340000
O	4.71781400	17.79868607	1.83340000
O	4.71781400	28.28573214	1.83340000
O	0.90594400	14.83053607	2.72118000
O	0.90594400	25.31758214	2.72118000
O	4.71781400	14.83053607	2.72118000
O	4.71781400	25.31758214	2.72118000
O	2.81187400	20.07405607	2.72118000
O	2.81187400	30.56110214	2.72118000
Ti	6.62374588	10.68408607	1.10336000
Ti	6.62374588	21.17113214	1.10336000
Ti	21.87123776	10.68408607	1.10336000
Ti	21.87123776	21.17113214	1.10336000
Ti	8.52968588	15.92761607	1.10336000
Ti	8.52968588	26.41466214	1.10336000
Ti	23.77717776	15.92761607	1.10336000
Ti	23.77717776	26.41466214	1.10336000
Ti	8.52968588	12.95945607	1.99114000
Ti	8.52968588	23.44650214	1.99114000
Ti	23.77717776	12.95945607	1.99114000
Ti	23.77717776	23.44650214	1.99114000
Ti	6.62374588	18.20298607	1.99115000
Ti	6.62374588	28.69003214	1.99115000
Ti	21.87123776	18.20298607	1.99115000
Ti	21.87123776	28.69003214	1.99115000
Ti	10.43561588	10.68408607	1.10336000
Ti	10.43561588	21.17113214	1.10336000
Ti	25.68310776	10.68408607	1.10336000
Ti	25.68310776	21.17113214	1.10336000
Ti	14.24749588	10.68408607	1.10336000
Ti	14.24749588	21.17113214	1.10336000
Ti	29.49498776	10.68408607	1.10336000
Ti	29.49498776	21.17113214	1.10336000
Ti	18.05936588	10.68408607	1.10336000
Ti	18.05936588	21.17113214	1.10336000
Ti	12.34155588	15.92761607	1.10336000
Ti	12.34155588	26.41466214	1.10336000
Ti	27.58904776	15.92761607	1.10336000
Ti	27.58904776	26.41466214	1.10336000
Ti	16.15343588	15.92761607	1.10336000
Ti	16.15343588	26.41466214	1.10336000
Ti	19.96530588	15.92761607	1.10336000
Ti	19.96530588	26.41466214	1.10336000
Ti	12.34155588	12.95945607	1.99114000
Ti	12.34155588	23.44650214	1.99114000
Ti	27.58904776	12.95945607	1.99114000
Ti	27.58904776	23.44650214	1.99114000
Ti	16.15343588	12.95945607	1.99114000
Ti	16.15343588	23.44650214	1.99114000
Ti	19.96530588	12.95945607	1.99114000
Ti	19.96530588	23.44650214	1.99114000
Ti	10.43561588	18.20298607	1.99115000
Ti	10.43561588	28.69003214	1.99115000
Ti	25.68310776	18.20298607	1.99115000
Ti	25.68310776	28.69003214	1.99115000
Ti	14.24749588	18.20298607	1.99115000
Ti	14.24749588	28.69003214	1.99115000
Ti	29.49498776	18.20298607	1.99115000
Ti	29.49498776	28.69003214	1.99115000
Ti	18.05936588	18.20298607	1.99115000
Ti	18.05936588	28.69003214	1.99115000
O	6.62374588	19.30006607	0.37332000
O	6.62374588	29.78711214	0.37332000
O	21.87123776	19.30006607	0.37332000
O	21.87123776	29.78711214	0.37332000
O	8.52968588	14.05653607	0.37332000
O	8.52968588	24.54358214	0.37332000
O	23.77717776	14.05653607	0.37332000
O	23.77717776	24.54358214	0.37332000
O	8.52968588	11.08838607	1.26110000
O	8.52968588	21.57543214	1.26110000
O	23.77717776	11.08838607	1.26110000
O	23.77717776	21.57543214	1.26110000
O	6.62374588	16.33190607	1.26111000
O	6.62374588	26.81895214	1.26111000
O	21.87123776	16.33190607	1.26111000
O	21.87123776	26.81895214	1.26111000
O	6.62374588	12.55516607	1.83340000
O	6.62374588	23.04221214	1.83340000
O	21.87123776	12.55516607	1.83340000
O	21.87123776	23.04221214	1.83340000
O	8.52968588	17.79868607	1.83340000
O	8.52968588	28.28573214	1.83340000
O	23.77717776	17.79868607	1.83340000
O	23.77717776	28.28573214	1.83340000
O	8.52968588	14.83053607	2.72118000
O	8.52968588	25.31758214	2.72118000
O	23.77717776	14.83053607	2.72118000
O	23.77717776	25.31758214	2.72118000
O	6.62374588	20.07405607	2.72118000
O	6.62374588	30.56110214	2.72118000
O	21.87123776	20.07405607	2.72118000
O	21.87123776	30.56110214	2.72118000
O	10.43561588	19.30006607	0.37332000
O	10.43561588	29.78711214	0.37332000
O	25.68310776	19.30006607	0.37332000
O	25.68310776	29.78711214	0.37332000
O	14.24749588	19.30006607	0.37332000
O	14.24749588	29.78711214	0.37332000
O	29.49498776	19.30006607	0.37332000
O	29.49498776	29.78711214	0.37332000
O	18.05936588	19.30006607	0.37332000
O	18.05936588	29.78711214	0.37332000
O	12.34155588	14.05653607	0.37332000
O	12.34155588	24.54358214	0.37332000
O	27.58904776	14.05653607	0.37332000
O	27.58904776	24.54358214	0.37332000
O	16.15343588	14.05653607	0.37332000
O	16.15343588	24.54358214	0.37332000
O	19.96530588	14.05653607	0.37332000
O	19.96530588	24.54358214	0.37332000
O	12.34155588	11.08838607	1.26110000
O	12.34155588	21.57543214	1.26110000
O	27.58904776	11.08838607	1.26110000
O	27.58904776	21.57543214	1.26110000
O	16.15343588	11.08838607	1.26110000
O	16.15343588	21.57543214	1.26110000
O	19.96530588	11.08838607	1.26110000
O	19.96530588	21.57543214	1.26110000
O	10.43561588	16.33190607	1.26111000
O	10.43561588	26.81895214	1.26111000
O	25.68310776	16.33190607	1.26111000
O	25.68310776	26.81895214	1.26111000
O	14.24749588	16.33190607	1.26111000
O	14.24749588	26.81895214	1.26111000
O	29.49498776	16.33190607	1.26111000
O	29.49498776	26.81895214	1.26111000
O	18.05936588	16.33190607	1.26111000
O	18.05936588	26.81895214	1.26111000
O	10.43561588	12.55516607	1.83340000
O	10.43561588	23.04221214	1.83340000
O	25.68310776	12.55516607	1.83340000
O	25.68310776	23.04221214	1.83340000
O	14.24749588	12.55516607	1.83340000
O	14.24749588	23.04221214	1.83340000
O	29.49498776	12.55516607	1.83340000
O	29.49498776	23.04221214	1.83340000
O	18.05936588	12.55516607	1.83340000
O	18.05936588	23.04221214	1.83340000
O	12.34155588	17.79868607	1.83340000
O	12.34155588	28.28573214	1.83340000
O	27.58904776	17.79868607	1.83340000
O	27.58904776	28.28573214	1.83340000
O	16.15343588	17.79868607	1.83340000
O	16.15343588	28.28573214	1.83340000
O	19.96530588	17.79868607	1.83340000
O	19.96530588	28.28573214	1.83340000
O	12.34155588	14.83053607	2.72118000
O	12.34155588	25.31758214	2.72118000
O	27.58904776	14.83053607	2.72118000
O	27.58904776	25.31758214	2.72118000
O	16.15343588	14.83053607	2.72118000
O	16.15343588	25.31758214	2.72118000
O	19.96530588	14.83053607	2.72118000
O	19.96530588	25.31758214	2.72118000
O	10.43561588	20.07405607	2.72118000
O	10.43561588	30.56110214	2.72118000
O	25.68310776	20.07405607	2.72118000
O	25.68310776	30.56110214	2.72118000
O	14.24749588	20.07405607	2.72118000
O	14.24749588	30.56110214	2.72118000
O	29.49498776	20.07405607	2.72118000
O	29.49498776	30.56110214	2.72118000
O	18.05936588	20.07405607	2.72118000
O	18.05936588	30.56110214	2.72118000
Ti	6.71662960	9.13720374	4.72814041
Ti	6.64102920	6.19879045	5.46493500
Ti	2.86263664	9.21225640	4.77399487
Ti	0.98627004	4.00937301	4.71447762
Ti	4.68973123	3.92040087	4.74048866
Ti	0.96499916	0.98402030	5.54696800
Ti	4.64522625	1.04360964	5.58920494
Ti	2.83339866	6.20824987	5.49988333
O	6.50206013	7.33167209	3.88736030
O	6.55463088	4.34459721	4.68433613
O	6.54986339	0.66890475	5.62408725
O	6.66521814	7.98688234	6.34209784
O	2.74492461	7.31076523	3.92781523
O	0.93386894	2.00432369	3.88870056
O	4.54166431	2.02954274	3.95823363
O	0.90370086	9.56354151	4.82432017
O	4.77745511	9.74561308	4.68220631
O	2.85411092	4.44732077	4.72421912
O	2.73904502	0.45033649	5.78255236
O	0.89241717	5.82098215	5.86581751
O	4.73349067	5.70986391	5.89469823
O	0.94982261	2.76148880	6.26197774
O	4.82769037	2.79069240	6.38678444
O	2.73877284	8.00553754	6.37828845
Ti	21.85790813	9.28671892	4.75512740
Ti	8.49062467	3.96491731	4.75626030
Ti	23.75472491	4.04491022	4.73959192
Ti	8.56807361	1.08972168	5.59848457
Ti	23.61235933	1.12870477	5.58469746
Ti	21.83709193	6.41258205	5.53347444
Ti	10.42227857	9.17825569	4.69447020
Ti	25.69574860	9.23064079	4.78048685
Ti	14.13734124	9.17619057	4.84230149
Ti	29.52588777	9.24038952	4.79009986
Ti	17.98936703	9.29153144	4.69326475
Ti	12.41459741	3.94797936	4.70426941
Ti	27.59456193	3.99860627	4.71190422
Ti	16.18880728	3.98521242	4.78637886
Ti	19.90677697	4.07861833	4.81536402
Ti	12.38617695	1.06577950	5.45991826
Ti	27.49413370	1.03365872	5.50492719
Ti	16.13805257	1.04377605	5.52843949
Ti	19.85280560	1.03193105	5.48568797
Ti	10.43827898	6.22527824	5.44309250
Ti	25.54534575	6.29680088	5.55823079
Ti	14.22773273	6.26005870	5.50594253
Ti	29.44143415	6.29436730	5.59915433
Ti	18.04694416	6.29687700	5.52599201
O	21.84757722	7.42820482	3.95547322
O	8.54079644	2.09653946	3.96972096
O	23.81270824	2.16588904	4.02023204
O	8.56264967	9.67050290	4.76481759
O	23.71594882	9.72762053	4.87217935
O	21.82603552	4.56762067	4.66438054
O	21.75122120	0.54385722	5.98275832
O	8.47893320	5.73527121	5.78194643
O	23.71923940	5.84837049	5.82722171
O	8.27460367	2.81647962	6.31344193
O	23.65545336	2.91488788	6.39137712
O	21.83430346	8.13375646	6.49356863
O	10.33025626	7.32275477	3.88356057
O	25.61824549	7.39047095	3.95401131
O	14.43019817	7.34912033	3.93000670
O	29.51320226	7.35650640	3.97767603
O	17.93554918	7.32068843	3.92731281
O	12.36946101	2.11551418	3.89446408
O	27.65364652	2.14255099	3.94559876
O	16.14118775	2.14196247	3.92477707
O	19.88810320	2.18419640	3.92588529
O	12.28726884	9.69789440	4.67140219
O	27.60683499	9.57370685	4.91936075
O	16.05930105	9.60445674	4.88120306
O	19.95125876	9.55116372	4.86864395
O	10.43054168	4.36142040	4.81539976
O	25.67939414	4.44717178	4.73694103
O	14.32716652	4.29127711	4.87414167
O	29.50203487	4.45523772	4.85810167
O	18.05995809	4.36171500	4.66785873
O	10.48285396	0.58289362	5.83650200
O	25.57191409	0.53185137	5.70449851
O	14.23798982	0.44106633	5.79533495
O	29.46322421	0.46097851	5.85248263
O	18.05079026	0.56754083	5.77903746
O	12.34711655	5.76653324	5.54784528
O	27.52576701	5.86495130	5.74662347
O	16.13511365	5.88829285	6.06189198
O	19.83932004	5.94050849	5.83333311
O	12.28562325	2.76201509	6.34191286
O	27.73246748	2.81970860	6.35767369
O	16.20644239	2.78201998	6.40323051
O	19.93621494	2.81687281	6.33070329
O	10.50824679	7.98069103	6.30221471
O	25.86599174	8.07481985	6.41896131
O	14.02062086	7.96583089	6.37751120
O	29.45821900	8.10042707	6.44940359
O	18.03529915	8.09864318	6.35044244
Ti	6.63433164	19.78778580	4.80237458
Ti	6.55212457	30.28151218	4.73247501
Ti	6.49460759	16.85183878	5.52749112
Ti	6.49260025	27.29785764	5.38021360
Ti	2.85177394	19.82086413	4.75547976
Ti	2.80094148	30.25371967	4.67143484
Ti	0.98960228	14.32664863	4.65682957
Ti	0.87947441	24.97015871	4.82679432
Ti	4.68361933	14.46939466	4.70651152
Ti	4.66848577	25.03034906	4.65458049
Ti	0.88325093	11.41125347	5.49559813
Ti	0.98888039	22.11369730	5.51864373
Ti	4.77674330	11.55311802	5.48835067
Ti	4.77815119	22.13310661	5.48839254
Ti	2.75505430	16.80951799	5.71369587
Ti	2.78826780	27.30822084	5.40292346
O	6.58219198	17.87030746	3.99345129
O	6.83354682	28.34238212	3.92107634
O	6.47348980	14.99967136	4.79041308
O	6.53726980	25.31921288	4.84619054
O	6.71205507	10.97198292	5.73199043
O	6.68366686	21.63048301	5.83455282
O	6.68129902	18.62828607	6.41614251
O	6.44596079	29.04136720	6.32078431
O	2.76903302	17.85504607	4.12627556
O	3.04733889	28.38072010	3.96051180
O	0.96681534	12.40397834	3.92855848
O	0.89242426	23.16595891	3.92520137
O	4.79638804	12.54953652	3.95462549
O	4.63552786	23.09903285	3.92580767
O	0.97321309	20.15667291	4.72526706
O	0.89343131	30.58798398	4.67712270
O	4.74224136	20.06305102	4.90426372
O	4.65729230	30.62689382	4.78707816
O	2.84050645	15.00005208	4.87946763
O	2.73285020	25.43083669	4.71528574
O	2.96675121	10.96781049	5.77325546
O	2.80650036	21.62862910	5.85407747
O	0.93165712	16.76260443	6.23124949
O	0.94910702	26.80023472	5.94805814
O	4.67017523	16.28847330	6.09810520
O	4.59662559	26.84654458	5.88138787
O	0.94598402	13.27523124	6.23348758
O	0.67081957	23.74626592	6.35786459
O	4.69416305	13.27631025	6.29500301
O	4.71201885	23.90900988	6.30497206
O	2.93714987	18.62281905	6.45145618
O	2.64037495	29.02549557	6.36593713
Ti	21.95027477	19.72111325	4.75084934
Ti	21.82579413	30.18097394	4.73092903
Ti	8.50290883	14.54128223	4.74792238
Ti	8.50446176	25.00697977	4.64574489
Ti	23.82763980	14.42034433	4.87024172
Ti	23.65768767	24.89600072	4.80089674
Ti	8.55665162	11.66891306	5.60433178
Ti	8.59095928	22.19850422	5.57017369
Ti	23.67026989	11.64212868	5.58485689
Ti	23.86064284	21.96176454	5.48242675
Ti	21.94091151	16.83714720	5.45169088
Ti	21.89968944	27.28558393	5.53661409
Ti	10.51781322	19.63708873	4.64845539
Ti	10.37717623	30.14427096	4.81764236
Ti	25.74455621	19.72007367	4.83980778
Ti	25.59282866	30.20430585	4.69513300
Ti	14.32829280	19.67844773	4.62344027
Ti	14.18996225	30.13680422	4.63724543
Ti	29.52376594	19.75560473	4.69338788
Ti	29.53344105	30.19506564	4.80372640
Ti	18.16039587	19.70989863	4.70978824
Ti	18.02023468	30.19951810	4.69072997
Ti	12.30368931	14.45970934	4.81450488
Ti	12.28344570	24.82377073	4.82270372
Ti	27.68061479	14.46488799	4.79311927
Ti	27.63676578	24.96187926	4.77848738
Ti	16.20756234	14.57758640	4.75031578
Ti	16.14997896	24.89181452	4.92370339
Ti	20.10296365	14.45331485	4.81018059
Ti	19.90491189	24.90247770	4.67327983
Ti	12.28728918	11.52147260	5.50286725
Ti	12.41320944	21.91946900	5.45492993
Ti	27.52645815	11.59759417	5.53702539
Ti	27.62469748	21.97669872	5.46512822
Ti	16.01109742	11.61445350	5.48384008
Ti	16.27645973	22.03094841	5.57940476
Ti	19.86439644	11.55231416	5.39877915
Ti	20.08188762	22.00731269	5.50970904
Ti	10.39688995	16.74833658	5.56582692
Ti	10.40238308	27.24415096	5.54086424
Ti	25.72549453	16.68284729	5.56917658
Ti	25.58811453	27.22018301	5.37831195
Ti	14.24928647	16.73685391	5.79042505
Ti	14.26844903	27.24713290	5.44597659
Ti	29.61513062	16.86268237	5.49028696
Ti	29.43752520	27.35219697	5.55437100
Ti	18.13489769	16.77880072	5.57485635
Ti	18.08248875	27.29403836	5.55149011
O	21.82955810	17.79071321	3.82874753
O	21.91301607	28.36805922	3.97860220
O	8.56766552	12.70051288	3.90707431
O	8.67914760	23.20780348	3.96800138
O	23.65532462	12.66120347	3.98430952
O	23.76790267	22.99117933	3.89032672
O	8.49461699	20.26324848	4.77575882
O	8.53579762	30.51909820	4.94992928
O	23.89592042	20.11497639	4.78405964
O	23.62598332	30.77913171	4.70313869
O	21.88603713	14.97194822	4.68495444
O	21.78498327	25.24203927	4.84645868
O	21.72526538	11.04413377	5.81169918
O	22.00895006	21.57341897	5.60418895
O	8.41981923	16.39447353	5.75759827
O	8.42370229	26.83280566	5.57017508
O	23.84965596	16.29436366	5.84022095
O	23.71119856	26.63365935	5.69241626
O	8.61753049	13.39512201	6.32920401
O	8.55183138	23.92854314	6.37705516
O	23.67661068	13.34495362	6.44307646
O	23.82154546	23.72729033	6.35873178
O	22.02241770	18.52271172	6.33106963
O	21.72874174	28.96240685	6.38270041
O	10.51207358	17.88473421	3.95121857
O	10.45676762	28.36714599	3.99383352
O	25.64710209	17.73046464	3.99065975
O	25.46585409	28.35031498	3.86916384
O	14.26116157	17.77136213	4.00480966
O	14.22742608	28.18851467	3.87855278
O	29.57176167	17.89666050	3.89835963
O	29.48017469	28.36789311	3.95297253
O	18.06352305	17.84761258	4.00264961
O	17.99615863	28.30632884	3.95678775
O	12.30008098	12.61257583	3.95747330
O	12.15662878	23.07730673	3.94752441
O	27.49726067	12.63718171	3.93038581
O	27.66204815	23.12674401	3.94387379
O	16.07487731	12.70035790	3.94655556
O	16.27695825	23.08804742	3.99029217
O	19.98860702	12.66343586	3.86817165
O	20.07052151	23.10320807	3.86625161
O	12.34176645	19.97126554	4.88709282
O	12.37080603	30.64219671	4.88730805
O	27.69308552	20.12520499	4.79375604
O	27.54928382	30.68910170	4.74361948
O	16.22072064	20.20060134	4.83722152
O	16.12831466	30.63659307	4.69651638
O	20.08579667	20.06050092	4.84014118
O	19.98926165	30.69456898	4.66919967
O	10.33958958	14.93140681	4.72133488
O	10.44866141	25.33777343	5.00947585
O	25.77919858	14.73561622	4.87438690
O	25.67323495	25.23045765	4.75976500
O	14.27232422	14.85501127	4.87389949
O	14.29492709	25.28003305	4.87099455
O	29.65680790	14.95881649	4.89459921
O	29.46600755	25.50795778	4.70266729
O	18.16878649	14.92197840	4.76156919
O	18.04312899	25.44142179	4.73842764
O	10.46170398	11.14335808	5.91267839
O	10.48006932	21.51420110	5.62928540
O	25.63945634	11.14664186	5.66999614
O	25.78156281	21.46947355	5.79810453
O	14.18909308	11.12271882	5.90249437
O	14.30935420	21.51553959	5.65243276
O	29.42702881	11.02090574	5.67976271
O	29.59030551	21.48374022	5.87366593
O	17.93417112	11.06065228	5.64719523
O	18.20608310	21.50367252	5.89540136
O	12.29068681	16.35205268	5.54194104
O	12.37968191	26.65870587	5.91217240
O	27.63195443	16.22815320	5.79116324
O	27.51666659	26.90654790	5.65526331
O	16.20627286	16.37021615	5.80804191
O	16.21351697	26.84232467	5.71194506
O	20.01958322	16.31376174	5.75253457
O	19.98394328	26.82551756	5.63984511
O	12.24360930	13.32946194	6.37961556
O	12.42594659	23.62579600	6.41315849
O	27.79852438	13.27806422	6.36890161
O	27.78432714	23.67938244	6.22563361
O	15.92112422	13.41750742	6.32917681
O	16.35235111	23.71355419	6.48005553
O	20.17342946	13.27821277	6.34894376
O	19.95016636	23.68247662	6.50323947
O	10.30666305	18.55989183	6.44435271
O	10.46077919	29.02771864	6.37978601
O	25.87473234	18.48607454	6.44793653
O	25.32601731	29.03356635	6.26183269
O	14.06797631	18.65753574	6.33035111
O	14.20495562	29.02079666	6.33262643
O	29.49701462	18.62770161	6.34189884
O	29.58418107	29.10259254	6.34043380
O	18.26701627	18.56427976	6.40823774
O	17.93343594	29.06522276	6.40880941
H	12.87890364	14.41961655	7.78783005
H	13.18861230	15.08494565	11.43144015
H	14.16972464	18.39736780	8.88173005
O	14.15421915	16.42524351	7.64006806
O	13.02028740	14.78432666	8.69601877
C	13.64080504	15.89761727	8.76365465
C	13.81868471	16.63923458	9.98899628
C	13.56291329	16.11749672	11.28791226
C	14.08284215	18.01460551	9.86757697
N	13.00445939	19.69821733	15.59049322
N	15.94250435	22.19218854	17.06231589
N	15.58087034	20.61918686	14.67512005
N	13.27691796	21.23857412	18.06407102
C	20.76169200	23.20395645	13.75914154
C	16.31600955	23.03911186	22.83856304
C	7.46095980	19.41314029	17.92657644
C	18.41777611	23.02155938	14.30134534
C	15.21082637	23.16276556	20.71394367
C	9.98324396	19.36908641	17.82402718
C	19.26992976	24.83167167	12.95512190
C	14.95225965	24.96466929	22.28088670
C	8.67025814	17.54854303	18.90630661
C	14.02422568	19.16609795	13.37033234
C	17.29407867	22.37060662	15.05493117
C	14.95621789	22.61498461	19.33230608
C	11.32745408	19.81568117	17.43303783
C	15.23920972	19.78677253	13.63129816
C	16.72039019	21.26462451	14.38240873
C	13.73970309	21.90980763	19.14602895
C	12.05444557	20.63902409	18.32588338
C	16.32274168	19.86625152	12.60770847
C	17.15025652	20.87899418	13.07878449
C	12.65612983	21.86989738	20.17268174
C	11.66362222	21.04973077	19.69285728
C	12.98561517	19.12226662	14.30426441
C	16.94951753	22.75646775	16.32424801
C	15.96982072	22.78658876	18.32210578
C	11.76359169	19.47009041	16.12341309
C	11.68559346	18.59853600	14.01071206
C	17.58085554	23.83268598	17.05843054
C	16.96273784	23.80842630	18.29909248
C	10.92783536	18.68025746	15.19130404
H	11.41756373	18.12930470	13.03199232
H	18.45305224	24.45524511	16.80614669
H	17.20418461	24.31759463	19.25965623
H	9.90457667	18.29081620	15.41543634
H	16.51674355	19.23494559	11.73823294
H	18.07065286	21.19795662	12.64229875
H	12.65011365	22.45289918	21.12505439
H	10.69082855	20.80443897	20.21428210
H	19.11965710	25.84691081	12.47443890
H	14.57780208	25.95280711	22.53116597
H	8.77812297	16.60889800	19.45199624
H	21.75858021	22.72567291	13.92930422
H	16.97735914	22.53928708	23.53445135
H	6.55973825	19.90022550	17.68680767
H	14.93110522	20.83190227	15.42679073
H	13.89328943	21.06704856	17.28147410
C	21.85614062	25.19061305	12.64341884
H	22.52421161	25.21956770	13.47347086
H	21.62184304	26.17605949	12.25809056
H	22.30146843	24.68371024	11.69828031
C	20.05160670	21.26743558	15.15898523
H	19.28872867	21.10014455	15.91477841
H	20.99921534	21.26742765	15.72477429
H	20.00974735	20.40185350	14.54895287
C	16.83332484	24.64001431	13.26207001
H	16.81600713	25.71691092	12.99153849
H	16.26304386	24.57401097	14.22669135
H	16.28107897	23.99941218	12.56377049
C	11.13803098	17.28665474	18.85044743
H	10.82900883	16.29727135	19.10789130
H	11.64864768	17.76499696	19.70628861
H	11.81217882	17.21918957	18.01488580
C	8.63218249	21.25336870	16.69251891
H	8.90862948	21.08004437	15.63726310
H	9.40183382	21.95636036	17.04023485
H	7.70677546	21.77704100	16.77036395
C	6.18908110	17.61689825	19.28759978
H	6.05412981	17.97564190	20.33452771
H	6.04528654	16.55583537	19.20987319
H	5.34288318	18.12954160	18.76405378
C	14.03590399	25.33181796	20.06670315
H	12.98018999	25.50479594	20.41375990
H	14.09645630	25.01570848	18.98236159
H	14.56193619	26.30724695	20.10320243
C	16.63298122	21.10134627	21.21205371
H	17.25837741	21.12854808	20.36060714
H	15.82795994	20.42257985	21.05318213
H	17.25061882	20.70337425	22.00271075
C	15.99785541	24.89459549	24.53466817
H	15.08465739	24.75023681	25.19682169
H	16.28025511	25.99371988	24.45034420
H	16.82068346	24.38743661	25.03786668
C	20.62650745	24.44540076	13.13121929
C	19.74109828	22.51789167	14.45035551
C	18.20059804	24.11081920	13.51042775
C	14.67088397	24.44248987	21.04747100
C	16.04322916	22.44352447	21.61855916
C	15.68460505	24.27069217	23.23138481
C	9.91385919	18.12941650	18.51921578
C	8.70372081	19.97095854	17.46245663
C	7.45169092	18.21517096	18.66740288
H	13.69361316	16.60860651	13.48093312
H	14.12990721	19.95360086	10.88930330
C	13.91884475	18.30290442	12.21334655
C	13.80440514	16.93381565	12.43596880
C	14.02452398	18.84754416	10.95648014

Ti O H C N 0
6-31G*
****

