%chk=f00013883.chk
%mem=24GB
%nproc=12
#p b3lyp/6-31G*

title

0 1
Ti	2.81187400	0.19704000	1.10336000
Ti	0.90594400	5.44057000	1.10336000
Ti	4.71781400	5.44057000	1.10336000
Ti	0.90594400	2.47241000	1.99114000
Ti	4.71781400	2.47241000	1.99114000
Ti	2.81187400	7.71594000	1.99115000
O	2.81187400	8.81302000	0.37332000
O	0.90594400	3.56949000	0.37332000
O	4.71781400	3.56949000	0.37332000
O	0.90594400	0.60134000	1.26110000
O	4.71781400	0.60134000	1.26110000
O	2.81187400	5.84486000	1.26111000
O	2.81187400	2.06812000	1.83340000
O	0.90594400	7.31164000	1.83340000
O	4.71781400	7.31164000	1.83340000
O	0.90594400	4.34349000	2.72118000
O	4.71781400	4.34349000	2.72118000
O	2.81187400	9.58701000	2.72118000
Ti	6.62374588	0.19704000	1.10336000
Ti	21.87123776	0.19704000	1.10336000
Ti	8.52968588	5.44057000	1.10336000
Ti	23.77717776	5.44057000	1.10336000
Ti	8.52968588	2.47241000	1.99114000
Ti	23.77717776	2.47241000	1.99114000
Ti	6.62374588	7.71594000	1.99115000
Ti	21.87123776	7.71594000	1.99115000
Ti	10.43561588	0.19704000	1.10336000
Ti	25.68310776	0.19704000	1.10336000
Ti	14.24749588	0.19704000	1.10336000
Ti	29.49498776	0.19704000	1.10336000
Ti	18.05936588	0.19704000	1.10336000
Ti	12.34155588	5.44057000	1.10336000
Ti	27.58904776	5.44057000	1.10336000
Ti	16.15343588	5.44057000	1.10336000
Ti	19.96530588	5.44057000	1.10336000
Ti	12.34155588	2.47241000	1.99114000
Ti	27.58904776	2.47241000	1.99114000
Ti	16.15343588	2.47241000	1.99114000
Ti	19.96530588	2.47241000	1.99114000
Ti	10.43561588	7.71594000	1.99115000
Ti	25.68310776	7.71594000	1.99115000
Ti	14.24749588	7.71594000	1.99115000
Ti	29.49498776	7.71594000	1.99115000
Ti	18.05936588	7.71594000	1.99115000
O	6.62374588	8.81302000	0.37332000
O	21.87123776	8.81302000	0.37332000
O	8.52968588	3.56949000	0.37332000
O	23.77717776	3.56949000	0.37332000
O	8.52968588	0.60134000	1.26110000
O	23.77717776	0.60134000	1.26110000
O	6.62374588	5.84486000	1.26111000
O	21.87123776	5.84486000	1.26111000
O	6.62374588	2.06812000	1.83340000
O	21.87123776	2.06812000	1.83340000
O	8.52968588	7.31164000	1.83340000
O	23.77717776	7.31164000	1.83340000
O	8.52968588	4.34349000	2.72118000
O	23.77717776	4.34349000	2.72118000
O	6.62374588	9.58701000	2.72118000
O	21.87123776	9.58701000	2.72118000
O	10.43561588	8.81302000	0.37332000
O	25.68310776	8.81302000	0.37332000
O	14.24749588	8.81302000	0.37332000
O	29.49498776	8.81302000	0.37332000
O	18.05936588	8.81302000	0.37332000
O	12.34155588	3.56949000	0.37332000
O	27.58904776	3.56949000	0.37332000
O	16.15343588	3.56949000	0.37332000
O	19.96530588	3.56949000	0.37332000
O	12.34155588	0.60134000	1.26110000
O	27.58904776	0.60134000	1.26110000
O	16.15343588	0.60134000	1.26110000
O	19.96530588	0.60134000	1.26110000
O	10.43561588	5.84486000	1.26111000
O	25.68310776	5.84486000	1.26111000
O	14.24749588	5.84486000	1.26111000
O	29.49498776	5.84486000	1.26111000
O	18.05936588	5.84486000	1.26111000
O	10.43561588	2.06812000	1.83340000
O	25.68310776	2.06812000	1.83340000
O	14.24749588	2.06812000	1.83340000
O	29.49498776	2.06812000	1.83340000
O	18.05936588	2.06812000	1.83340000
O	12.34155588	7.31164000	1.83340000
O	27.58904776	7.31164000	1.83340000
O	16.15343588	7.31164000	1.83340000
O	19.96530588	7.31164000	1.83340000
O	12.34155588	4.34349000	2.72118000
O	27.58904776	4.34349000	2.72118000
O	16.15343588	4.34349000	2.72118000
O	19.96530588	4.34349000	2.72118000
O	10.43561588	9.58701000	2.72118000
O	25.68310776	9.58701000	2.72118000
O	14.24749588	9.58701000	2.72118000
O	29.49498776	9.58701000	2.72118000
O	18.05936588	9.58701000	2.72118000
Ti	2.81187400	10.68408607	1.10336000
Ti	2.81187400	21.17113214	1.10336000
Ti	0.90594400	15.92761607	1.10336000
Ti	0.90594400	26.41466214	1.10336000
Ti	4.71781400	15.92761607	1.10336000
Ti	4.71781400	26.41466214	1.10336000
Ti	0.90594400	12.95945607	1.99114000
Ti	0.90594400	23.44650214	1.99114000
Ti	4.71781400	12.95945607	1.99114000
Ti	4.71781400	23.44650214	1.99114000
Ti	2.81187400	18.20298607	1.99115000
Ti	2.81187400	28.69003214	1.99115000
O	2.81187400	19.30006607	0.37332000
O	2.81187400	29.78711214	0.37332000
O	0.90594400	14.05653607	0.37332000
O	0.90594400	24.54358214	0.37332000
O	4.71781400	14.05653607	0.37332000
O	4.71781400	24.54358214	0.37332000
O	0.90594400	11.08838607	1.26110000
O	0.90594400	21.57543214	1.26110000
O	4.71781400	11.08838607	1.26110000
O	4.71781400	21.57543214	1.26110000
O	2.81187400	16.33190607	1.26111000
O	2.81187400	26.81895214	1.26111000
O	2.81187400	12.55516607	1.83340000
O	2.81187400	23.04221214	1.83340000
O	0.90594400	17.79868607	1.83340000
O	0.90594400	28.28573214	1.83340000
O	4.71781400	17.79868607	1.83340000
O	4.71781400	28.28573214	1.83340000
O	0.90594400	14.83053607	2.72118000
O	0.90594400	25.31758214	2.72118000
O	4.71781400	14.83053607	2.72118000
O	4.71781400	25.31758214	2.72118000
O	2.81187400	20.07405607	2.72118000
O	2.81187400	30.56110214	2.72118000
Ti	6.62374588	10.68408607	1.10336000
Ti	6.62374588	21.17113214	1.10336000
Ti	21.87123776	10.68408607	1.10336000
Ti	21.87123776	21.17113214	1.10336000
Ti	8.52968588	15.92761607	1.10336000
Ti	8.52968588	26.41466214	1.10336000
Ti	23.77717776	15.92761607	1.10336000
Ti	23.77717776	26.41466214	1.10336000
Ti	8.52968588	12.95945607	1.99114000
Ti	8.52968588	23.44650214	1.99114000
Ti	23.77717776	12.95945607	1.99114000
Ti	23.77717776	23.44650214	1.99114000
Ti	6.62374588	18.20298607	1.99115000
Ti	6.62374588	28.69003214	1.99115000
Ti	21.87123776	18.20298607	1.99115000
Ti	21.87123776	28.69003214	1.99115000
Ti	10.43561588	10.68408607	1.10336000
Ti	10.43561588	21.17113214	1.10336000
Ti	25.68310776	10.68408607	1.10336000
Ti	25.68310776	21.17113214	1.10336000
Ti	14.24749588	10.68408607	1.10336000
Ti	14.24749588	21.17113214	1.10336000
Ti	29.49498776	10.68408607	1.10336000
Ti	29.49498776	21.17113214	1.10336000
Ti	18.05936588	10.68408607	1.10336000
Ti	18.05936588	21.17113214	1.10336000
Ti	12.34155588	15.92761607	1.10336000
Ti	12.34155588	26.41466214	1.10336000
Ti	27.58904776	15.92761607	1.10336000
Ti	27.58904776	26.41466214	1.10336000
Ti	16.15343588	15.92761607	1.10336000
Ti	16.15343588	26.41466214	1.10336000
Ti	19.96530588	15.92761607	1.10336000
Ti	19.96530588	26.41466214	1.10336000
Ti	12.34155588	12.95945607	1.99114000
Ti	12.34155588	23.44650214	1.99114000
Ti	27.58904776	12.95945607	1.99114000
Ti	27.58904776	23.44650214	1.99114000
Ti	16.15343588	12.95945607	1.99114000
Ti	16.15343588	23.44650214	1.99114000
Ti	19.96530588	12.95945607	1.99114000
Ti	19.96530588	23.44650214	1.99114000
Ti	10.43561588	18.20298607	1.99115000
Ti	10.43561588	28.69003214	1.99115000
Ti	25.68310776	18.20298607	1.99115000
Ti	25.68310776	28.69003214	1.99115000
Ti	14.24749588	18.20298607	1.99115000
Ti	14.24749588	28.69003214	1.99115000
Ti	29.49498776	18.20298607	1.99115000
Ti	29.49498776	28.69003214	1.99115000
Ti	18.05936588	18.20298607	1.99115000
Ti	18.05936588	28.69003214	1.99115000
O	6.62374588	19.30006607	0.37332000
O	6.62374588	29.78711214	0.37332000
O	21.87123776	19.30006607	0.37332000
O	21.87123776	29.78711214	0.37332000
O	8.52968588	14.05653607	0.37332000
O	8.52968588	24.54358214	0.37332000
O	23.77717776	14.05653607	0.37332000
O	23.77717776	24.54358214	0.37332000
O	8.52968588	11.08838607	1.26110000
O	8.52968588	21.57543214	1.26110000
O	23.77717776	11.08838607	1.26110000
O	23.77717776	21.57543214	1.26110000
O	6.62374588	16.33190607	1.26111000
O	6.62374588	26.81895214	1.26111000
O	21.87123776	16.33190607	1.26111000
O	21.87123776	26.81895214	1.26111000
O	6.62374588	12.55516607	1.83340000
O	6.62374588	23.04221214	1.83340000
O	21.87123776	12.55516607	1.83340000
O	21.87123776	23.04221214	1.83340000
O	8.52968588	17.79868607	1.83340000
O	8.52968588	28.28573214	1.83340000
O	23.77717776	17.79868607	1.83340000
O	23.77717776	28.28573214	1.83340000
O	8.52968588	14.83053607	2.72118000
O	8.52968588	25.31758214	2.72118000
O	23.77717776	14.83053607	2.72118000
O	23.77717776	25.31758214	2.72118000
O	6.62374588	20.07405607	2.72118000
O	6.62374588	30.56110214	2.72118000
O	21.87123776	20.07405607	2.72118000
O	21.87123776	30.56110214	2.72118000
O	10.43561588	19.30006607	0.37332000
O	10.43561588	29.78711214	0.37332000
O	25.68310776	19.30006607	0.37332000
O	25.68310776	29.78711214	0.37332000
O	14.24749588	19.30006607	0.37332000
O	14.24749588	29.78711214	0.37332000
O	29.49498776	19.30006607	0.37332000
O	29.49498776	29.78711214	0.37332000
O	18.05936588	19.30006607	0.37332000
O	18.05936588	29.78711214	0.37332000
O	12.34155588	14.05653607	0.37332000
O	12.34155588	24.54358214	0.37332000
O	27.58904776	14.05653607	0.37332000
O	27.58904776	24.54358214	0.37332000
O	16.15343588	14.05653607	0.37332000
O	16.15343588	24.54358214	0.37332000
O	19.96530588	14.05653607	0.37332000
O	19.96530588	24.54358214	0.37332000
O	12.34155588	11.08838607	1.26110000
O	12.34155588	21.57543214	1.26110000
O	27.58904776	11.08838607	1.26110000
O	27.58904776	21.57543214	1.26110000
O	16.15343588	11.08838607	1.26110000
O	16.15343588	21.57543214	1.26110000
O	19.96530588	11.08838607	1.26110000
O	19.96530588	21.57543214	1.26110000
O	10.43561588	16.33190607	1.26111000
O	10.43561588	26.81895214	1.26111000
O	25.68310776	16.33190607	1.26111000
O	25.68310776	26.81895214	1.26111000
O	14.24749588	16.33190607	1.26111000
O	14.24749588	26.81895214	1.26111000
O	29.49498776	16.33190607	1.26111000
O	29.49498776	26.81895214	1.26111000
O	18.05936588	16.33190607	1.26111000
O	18.05936588	26.81895214	1.26111000
O	10.43561588	12.55516607	1.83340000
O	10.43561588	23.04221214	1.83340000
O	25.68310776	12.55516607	1.83340000
O	25.68310776	23.04221214	1.83340000
O	14.24749588	12.55516607	1.83340000
O	14.24749588	23.04221214	1.83340000
O	29.49498776	12.55516607	1.83340000
O	29.49498776	23.04221214	1.83340000
O	18.05936588	12.55516607	1.83340000
O	18.05936588	23.04221214	1.83340000
O	12.34155588	17.79868607	1.83340000
O	12.34155588	28.28573214	1.83340000
O	27.58904776	17.79868607	1.83340000
O	27.58904776	28.28573214	1.83340000
O	16.15343588	17.79868607	1.83340000
O	16.15343588	28.28573214	1.83340000
O	19.96530588	17.79868607	1.83340000
O	19.96530588	28.28573214	1.83340000
O	12.34155588	14.83053607	2.72118000
O	12.34155588	25.31758214	2.72118000
O	27.58904776	14.83053607	2.72118000
O	27.58904776	25.31758214	2.72118000
O	16.15343588	14.83053607	2.72118000
O	16.15343588	25.31758214	2.72118000
O	19.96530588	14.83053607	2.72118000
O	19.96530588	25.31758214	2.72118000
O	10.43561588	20.07405607	2.72118000
O	10.43561588	30.56110214	2.72118000
O	25.68310776	20.07405607	2.72118000
O	25.68310776	30.56110214	2.72118000
O	14.24749588	20.07405607	2.72118000
O	14.24749588	30.56110214	2.72118000
O	29.49498776	20.07405607	2.72118000
O	29.49498776	30.56110214	2.72118000
O	18.05936588	20.07405607	2.72118000
O	18.05936588	30.56110214	2.72118000
Ti	6.62765400	9.14899456	4.85748524
Ti	6.71099833	6.21966273	5.55578437
Ti	2.81441675	9.20336052	4.73080659
Ti	0.93351840	3.84523393	4.81673043
Ti	4.62085728	3.92695653	4.90588805
Ti	0.88089065	0.91046182	5.49883498
Ti	4.79406028	0.94873157	5.50846433
Ti	2.86507115	6.26910956	5.48809557
O	6.49125204	7.33405743	3.96174466
O	6.62987159	4.39085120	4.78277196
O	6.62650536	0.48891641	5.87461047
O	6.92909838	8.01562953	6.36418235
O	2.93918619	7.39243251	3.90304700
O	0.91514027	2.02121051	3.96062244
O	4.58219959	2.01101335	3.94766422
O	0.93519907	9.64755548	4.63181917
O	4.69252533	9.62555512	4.91801039
O	2.77424648	4.36613541	4.90755368
O	2.82909943	0.52071389	5.82704658
O	0.89705554	5.81771103	5.64312604
O	4.76983007	5.74032467	5.74971885
O	0.89302312	2.62026356	6.48365953
O	4.88767211	2.65156940	6.42609900
O	2.84317990	7.97149424	6.35634197
Ti	21.79750143	9.16811171	4.67491798
Ti	8.58155991	3.93372523	4.89619807
Ti	23.78915532	3.93779510	4.79766879
Ti	8.63271600	1.02107148	5.58066622
Ti	23.85830518	1.03537012	5.41780711
Ti	21.82576718	6.26582375	5.47741524
Ti	10.49433882	9.18707531	4.66923151
Ti	25.68892376	9.28558671	4.82643717
Ti	14.25512923	9.20972668	4.75565693
Ti	29.58927900	9.14825052	4.76489057
Ti	18.01581499	9.27225344	4.88739610
Ti	12.46781461	3.94173447	4.81836497
Ti	27.60795010	3.91634545	4.72353665
Ti	16.16402460	3.87138105	4.80482714
Ti	19.91980855	3.98836130	4.65838033
Ti	12.48903670	0.90596585	5.59489940
Ti	27.66093069	1.06195840	5.55376046
Ti	16.24434755	0.97962000	5.44462786
Ti	20.03718293	1.05218602	5.51895422
Ti	10.44323078	6.23786734	5.57010884
Ti	25.59683524	6.37847479	5.54931242
Ti	14.28714587	6.24828295	5.53832285
Ti	29.38287771	6.19592964	5.47594316
Ti	18.05720681	6.24650135	5.44276221
O	21.82217204	7.27193801	3.87470747
O	8.61758837	2.14730193	3.98678511
O	23.83609889	2.17311002	3.93638786
O	8.57280052	9.54211900	4.85685197
O	23.81031449	9.76356680	4.77725990
O	21.83102489	4.32749494	4.85037116
O	21.92983550	0.72393150	5.65265786
O	8.57623622	5.70312868	5.97295644
O	23.73714294	5.88748099	5.72203552
O	8.66700882	2.72174608	6.46257840
O	23.66334012	2.77021150	6.43072887
O	21.79738170	8.08469723	6.27338568
O	10.66925877	7.32147002	3.96327201
O	25.70456291	7.35873922	3.96225318
O	14.27396153	7.17884273	3.92960676
O	29.37846977	7.09976990	3.88560318
O	18.03630355	7.33904081	3.93694796
O	12.47649363	1.94986206	4.00105780
O	27.67573143	2.14549722	3.96851908
O	16.18931989	2.03536044	3.91355450
O	19.94301979	2.05390771	3.90108573
O	12.36725852	9.71555227	4.57749560
O	27.57355627	9.56668382	4.78450558
O	16.09297502	9.60665432	4.77697064
O	19.96641905	9.67287618	4.68606032
O	10.53484135	4.27980562	4.74888581
O	25.67761347	4.41184059	4.85436189
O	14.33019888	4.34596826	4.82423175
O	29.52560250	4.26881821	4.86396537
O	18.00211280	4.38754917	4.76675541
O	10.59283881	0.49027145	5.75994021
O	25.71517972	0.68886632	5.78656141
O	14.39523108	0.38450850	5.85898713
O	29.52871008	0.50791469	5.93815067
O	18.15790226	0.55124871	5.79462117
O	12.40511266	5.66489169	5.90018797
O	27.50218887	5.84383208	5.91395670
O	16.15758657	5.76448811	5.97463592
O	19.96697108	5.80365873	5.65613712
O	12.46843969	2.78460195	6.34109938
O	27.61692081	2.77695805	6.38187484
O	16.19506314	2.80787569	6.35675540
O	19.94401884	2.83556381	6.35172397
O	10.51114438	8.01869003	6.44235189
O	25.72886393	8.09686835	6.44753567
O	14.22328698	8.02744564	6.31806248
O	29.71601526	7.99271851	6.26063730
O	18.17578627	7.95142353	6.37935202
Ti	6.63643270	19.78482667	4.70372500
Ti	6.72398325	30.19984893	4.85134690
Ti	6.57548754	16.78762787	5.46468006
Ti	6.70148514	27.18003791	5.40919305
Ti	2.78803682	19.68216252	4.79865907
Ti	2.93771145	30.12295395	4.79174393
Ti	0.90165061	14.50450502	4.79835660
Ti	0.92337509	24.87435499	4.91240813
Ti	4.63205051	14.56916434	4.82216223
Ti	4.74543920	24.92518019	4.79318314
Ti	0.88165716	11.55520955	5.47194543
Ti	0.90263845	21.97901002	5.48623771
Ti	4.68543252	11.56758250	5.48117269
Ti	4.68196504	21.99764279	5.48045701
Ti	2.74011705	16.77072312	5.49902988
Ti	2.87957952	27.18319901	5.47081107
O	6.67162276	17.69582294	3.86378248
O	6.51206518	28.40082854	3.93574600
O	6.60432217	14.79116523	4.92993657
O	6.68904142	25.25607922	4.67973387
O	6.58599775	11.07314134	5.72189600
O	6.58674847	21.59663328	5.49695780
O	6.72143087	18.54282997	6.37326520
O	6.66972413	28.95251368	6.31012546
O	2.78069152	17.86270679	3.94121633
O	2.88562260	28.29283966	3.93371576
O	0.93738685	12.68409751	3.93987813
O	0.84907495	23.02853187	3.94377706
O	4.72267203	12.63891938	3.88580403
O	4.71964975	23.02680318	3.91556294
O	1.01071891	20.12405524	4.71270364
O	0.94040998	30.49864393	4.79536746
O	4.70580799	20.05072990	4.90173857
O	4.84166735	30.61371242	4.66388454
O	2.72617859	15.01318335	4.70145064
O	2.86898188	25.28296660	4.84853796
O	2.76086530	11.03305458	5.77311198
O	2.80994566	21.52719103	5.93713091
O	0.88550422	16.29573895	5.79952604
O	0.94055960	26.69988618	5.75057103
O	4.68089200	16.31282983	5.77527838
O	4.77690661	26.71449489	5.80116826
O	0.78525807	13.22791152	6.45159805
O	0.83936692	23.74064822	6.39554852
O	4.60446305	13.28910798	6.29068483
O	4.79051328	23.74462737	6.32585109
O	2.66022861	18.62294392	6.38603588
O	2.86175554	28.80368234	6.42457071
Ti	21.89492000	19.73851753	4.73330841
Ti	21.99422217	30.26805027	4.74230192
Ti	8.44374185	14.37187249	4.87514652
Ti	8.60949218	24.97790896	4.69981763
Ti	23.81004350	14.41738675	4.65486709
Ti	23.84558011	24.93001101	4.69582107
Ti	8.46651820	11.43586469	5.51962451
Ti	8.49208946	22.02242407	5.41013339
Ti	23.70159366	11.53492794	5.50933891
Ti	23.74847181	21.95887650	5.48947413
Ti	21.90023020	16.86367500	5.56221497
Ti	21.96116690	27.21198044	5.46111033
Ti	10.43336871	19.70542737	4.81520525
Ti	10.49649689	30.16764182	4.66453613
Ti	25.68986135	19.78466803	4.79025071
Ti	25.72956964	30.17090439	4.90811159
Ti	14.25138275	19.78487177	4.68678417
Ti	14.39362652	30.15753311	4.76978429
Ti	29.51736295	19.70782411	4.68641059
Ti	29.48265362	30.14548455	4.84598719
Ti	18.02995901	19.86008520	4.78046144
Ti	18.16347987	30.21790297	4.69934064
Ti	12.33010443	14.46937042	4.83242420
Ti	12.39325801	25.04575050	4.74260117
Ti	27.53162748	14.54028023	4.75395068
Ti	27.58300223	24.89557367	4.73260010
Ti	16.19369447	14.43997128	4.78794378
Ti	16.13650727	24.97194585	4.77369807
Ti	20.13267458	14.53497383	4.85161459
Ti	19.96885994	24.99320097	4.64880417
Ti	12.29179099	11.51253442	5.40236438
Ti	12.26628791	21.99013538	5.52073110
Ti	27.64182693	11.61516181	5.56523952
Ti	27.55743610	22.02531754	5.59718572
Ti	16.14752853	11.49892669	5.41971035
Ti	16.13074726	22.11769818	5.47188099
Ti	19.89334251	11.62134757	5.56684239
Ti	19.90524293	22.11845393	5.53888037
Ti	10.41176352	16.76089062	5.44790282
Ti	10.37544383	27.25785559	5.59117908
Ti	25.67135538	16.85837967	5.51196319
Ti	25.71036624	27.18022268	5.46850357
Ti	14.23003428	16.77788542	5.64385651
Ti	14.29132686	27.28187784	5.61504852
Ti	29.54415067	16.82454615	5.49707155
Ti	29.53109753	27.17613216	5.43733189
Ti	18.12281884	16.84247695	5.51492647
Ti	18.11975998	27.31558805	5.59950747
O	22.00627240	17.77637234	3.97811716
O	22.06994720	28.29258629	3.94182236
O	8.46823561	12.52043739	3.94088197
O	8.42206755	23.00660826	3.88219617
O	23.73806903	12.51271746	3.85202691
O	24.04773273	23.02674143	3.89056371
O	8.54248216	20.11702419	4.76116241
O	8.54911193	30.71097529	4.74451585
O	23.78190486	19.99301123	4.98043156
O	23.88663399	30.63894693	4.81303922
O	22.00686833	15.05705629	4.82005620
O	21.97426889	25.40901809	4.65141479
O	21.91816034	11.08637684	5.71675295
O	21.80077138	21.57683340	5.90970863
O	8.49701151	16.28055612	5.62837935
O	8.54822586	26.70257681	5.75484211
O	23.72664384	16.60606298	5.95757037
O	23.91014636	26.69679146	5.91586541
O	8.50861775	13.22149748	6.40882093
O	8.62669969	23.73842380	6.35249504
O	23.78639445	13.29135054	6.40976013
O	23.82931893	23.76991704	6.29351157
O	21.79244137	18.60859230	6.39726496
O	21.91936986	29.07221680	6.32992225
O	10.37784529	17.83705101	3.94976362
O	10.09893458	28.30890483	4.01689489
O	25.46370388	17.87297404	3.96265601
O	25.73838055	28.39560986	3.97330440
O	14.23120408	17.88715318	3.96018782
O	14.43727737	28.30912648	3.93585893
O	29.40270834	17.78143084	3.92640543
O	29.59538716	28.39988057	4.00485783
O	17.94051249	17.95776116	3.99291782
O	18.23026522	28.29695619	3.98343527
O	12.40994725	12.69362805	3.94295644
O	12.51439607	23.07306172	3.98022425
O	27.61212071	12.66734121	3.98899268
O	27.66542971	23.13153185	3.95096074
O	16.27147522	12.58036544	3.91663797
O	16.20091374	23.14046404	3.87231505
O	19.90133058	12.48238072	3.99759666
O	19.78710895	23.10401197	3.91850248
O	12.36261244	20.15919787	4.72514475
O	12.43539341	30.63085044	4.53665806
O	27.64919410	20.15393024	4.75897029
O	27.59385267	30.60982628	4.90694183
O	16.15905024	20.29209482	4.81041166
O	16.21352271	30.61723350	4.62328929
O	19.98714124	20.27907445	4.73426628
O	20.03739486	30.68935500	4.62275516
O	10.40812978	14.82605973	4.87699405
O	10.53202590	25.43897314	4.95570294
O	25.64823210	14.88241645	4.91442544
O	25.73627003	25.33257481	4.70162665
O	14.33586270	15.01969964	4.65266114
O	14.29499029	25.49605848	4.72522297
O	29.48084230	14.87216108	4.83876192
O	29.57344863	25.24207020	4.76213161
O	18.09075060	14.88211796	4.82838727
O	18.03304717	25.53106752	4.78307061
O	10.40147752	11.09596725	5.58395321
O	10.43466365	21.44249235	5.85633455
O	25.69985995	11.10355076	5.67786018
O	25.65424972	21.49064069	5.86383866
O	14.24692184	11.08679031	5.67819745
O	14.18500173	21.59775392	5.65871539
O	29.54006837	10.88962476	5.87966645
O	29.46297839	21.51907160	5.85561630
O	17.96862034	11.04202682	5.90106024
O	18.05875919	21.64371266	5.81248026
O	12.25005175	16.31873123	5.73339706
O	12.43836191	26.95065177	5.73490009
O	27.58179016	16.36442960	5.89680642
O	27.63199824	26.73949798	5.76706585
O	16.32251565	16.24997410	5.78376432
O	16.18334933	26.72996340	5.92307355
O	19.94023683	16.29102669	5.77555980
O	19.96594285	26.76764514	5.81481896
O	12.25210716	13.16600925	6.37048161
O	12.36709025	23.75271775	6.29917128
O	27.63419899	13.38483074	6.34247182
O	27.55085011	23.80473460	6.36891555
O	16.11529050	13.19310203	6.34973195
O	16.26828018	23.79552647	6.38313371
O	20.26596706	13.30972820	6.36135080
O	20.14781269	23.93021958	6.28032037
O	10.50442978	18.55264051	6.35135970
O	10.57212871	29.04142310	6.28414052
O	25.74192826	18.65158177	6.38214066
O	25.65160827	28.96190992	6.46060430
O	14.59990219	18.60623824	6.30496751
O	14.48573622	29.09076995	6.38846161
O	29.68225523	18.49631762	6.29489162
O	29.37199412	28.86253015	6.36338301
O	18.12588827	18.57742896	6.25374998
O	17.99941947	29.18866783	6.29640580
H	15.89441897	14.43668713	7.87003546
H	16.88906234	16.31413128	10.64033832
H	13.26888563	17.94358585	9.12200396
O	14.38806008	16.17210346	7.46836570
O	15.83561155	14.99400880	8.69108437
C	15.11374914	16.06214498	8.59525723
C	15.07557203	17.00722984	9.73250237
C	16.05437527	16.91853690	10.78097674
C	13.99484057	17.84840952	9.90518276
N	13.15174772	19.51646632	15.40571914
N	14.95039960	23.00285830	16.97515800
N	15.53232143	21.21740041	14.62752381
N	12.65474854	21.33465072	17.66849788
C	20.57283675	24.08480499	15.66827600
C	12.98981973	24.78865360	22.46586904
C	8.37159858	16.92722813	17.52287728
C	18.22055126	23.78102053	15.23909860
C	13.07954884	24.31047312	20.05863357
C	10.49133806	18.10780706	17.71100323
C	19.45513645	25.68785303	14.32974232
C	11.93334893	26.25412569	20.96761782
C	10.26298679	15.83978066	18.61342836
C	14.58180893	19.29432159	13.31591404
C	16.92677321	23.03951863	15.40636961
C	13.41932272	23.43605214	18.85527335
C	11.44411510	19.15848904	17.15215519
C	15.56787655	20.19318887	13.70339803
C	16.70359147	21.89817462	14.67851619
C	12.65178919	22.21998346	18.73654660
C	11.69175755	20.34864047	17.88000274
C	16.88080442	20.27075800	13.07786202
C	17.54804172	21.31662058	13.66027654
C	11.62210337	21.78445077	19.64103302
C	11.00040980	20.65079292	19.14401546
C	13.44990194	19.00870370	14.15045731
C	16.14629783	23.54569440	16.47958148
C	14.44381524	23.85056258	17.98584795
C	12.05939439	18.81968258	15.90064224
C	12.53601904	17.94488705	13.86395474
C	16.37726909	24.80240681	17.13480675
C	15.32242049	25.01433498	18.03261978
C	11.66552082	17.81146003	14.93054780
H	12.39678599	17.56633334	12.88411457
H	17.26096517	25.38306749	17.01422843
H	15.23169995	25.87674528	18.65174962
H	10.91830556	17.00972351	15.00333271
H	17.14977597	19.46926697	12.37459515
H	18.63042090	21.61944674	13.51935191
H	11.22400350	22.26449859	20.57651104
H	10.26579292	20.07594444	19.73420810
H	19.45610395	26.70160694	13.86040595
H	11.35957255	27.09040738	20.61741094
H	10.73364702	14.92422867	18.93982703
H	21.43546533	23.76406365	16.29186771
H	13.25749802	24.42032040	23.49905021
H	7.33383062	16.73615851	17.17635185
H	14.71201298	21.49627812	15.17907782
H	13.25525948	21.42387673	16.84899148
C	21.97731326	25.79302848	14.45564308
H	22.69718283	25.72824869	15.22686195
H	21.86885157	26.81201927	14.05923987
H	22.28331900	25.23384724	13.62244335
C	19.31205740	22.12602558	16.81472730
H	18.81745461	21.27401300	16.30955656
H	18.61721964	22.47348882	17.60834668
H	20.22494804	21.78008415	17.20284380
C	16.96646481	25.47651265	13.84904463
H	16.39410841	26.19513165	14.51263640
H	16.29549837	24.67428586	13.59608576
H	17.17874484	26.15745241	12.95949842
C	12.53890569	16.97752580	18.62846107
H	12.77077234	17.97787921	18.94145215
H	13.06926487	16.59771299	17.74257895
H	12.78376958	16.28121593	19.41942414
C	8.50425287	19.27712400	16.49347818
H	7.52863606	18.92755720	16.04279903
H	9.19345690	19.72366258	15.76141227
H	8.23234097	20.12975666	17.19117464
C	7.96254611	14.75432045	18.71452945
H	7.36506313	15.06818752	19.59090141
H	8.53626012	13.88609931	19.00598993
H	7.29051899	14.53112993	17.83649374
C	11.82573850	25.72556729	18.47149827
H	10.73330562	25.90846294	18.48808184
H	12.03783359	24.83802729	17.88652203
H	12.28011249	26.66866300	18.05298007
C	14.37052205	22.81605454	21.62834844
H	14.15871070	21.98595960	20.85553678
H	14.13267748	22.34478760	22.55363884
H	15.48169732	23.02608021	21.52139471
C	11.39587019	26.51158081	23.45142385
H	11.70281940	27.57427174	23.51989669
H	11.70424714	25.96192340	24.37145266
H	10.31258692	26.50191019	23.42093977
C	20.65780645	25.19299822	14.81736468
C	19.40650749	23.33123231	15.86822465
C	18.23144437	24.99867624	14.52080545
C	12.33393173	25.47104685	19.88785525
C	13.51010983	24.03527583	21.37134861
C	12.04942986	25.81084372	22.27004683
C	11.08183472	16.95779949	18.32939732
C	9.11446113	18.11725200	17.22612128
C	8.89776957	15.88637438	18.28985154
H	16.71910321	17.59133301	12.65240804
H	12.90164759	19.20202089	11.21153740
C	14.79512867	18.51985116	12.03702564
C	15.91244779	17.67387009	11.89922074
C	13.82385493	18.63240452	11.04810908

Ti O H C N 0
6-31G*
****

