%chk=f00018076.chk
%mem=24GB
%nproc=12
#p b3lyp/6-31G*

title

0 1
Ti	2.81187400	0.19704000	1.10336000
Ti	0.90594400	5.44057000	1.10336000
Ti	4.71781400	5.44057000	1.10336000
Ti	0.90594400	2.47241000	1.99114000
Ti	4.71781400	2.47241000	1.99114000
Ti	2.81187400	7.71594000	1.99115000
O	2.81187400	8.81302000	0.37332000
O	0.90594400	3.56949000	0.37332000
O	4.71781400	3.56949000	0.37332000
O	0.90594400	0.60134000	1.26110000
O	4.71781400	0.60134000	1.26110000
O	2.81187400	5.84486000	1.26111000
O	2.81187400	2.06812000	1.83340000
O	0.90594400	7.31164000	1.83340000
O	4.71781400	7.31164000	1.83340000
O	0.90594400	4.34349000	2.72118000
O	4.71781400	4.34349000	2.72118000
O	2.81187400	9.58701000	2.72118000
Ti	6.62374588	0.19704000	1.10336000
Ti	21.87123776	0.19704000	1.10336000
Ti	8.52968588	5.44057000	1.10336000
Ti	23.77717776	5.44057000	1.10336000
Ti	8.52968588	2.47241000	1.99114000
Ti	23.77717776	2.47241000	1.99114000
Ti	6.62374588	7.71594000	1.99115000
Ti	21.87123776	7.71594000	1.99115000
Ti	10.43561588	0.19704000	1.10336000
Ti	25.68310776	0.19704000	1.10336000
Ti	14.24749588	0.19704000	1.10336000
Ti	29.49498776	0.19704000	1.10336000
Ti	18.05936588	0.19704000	1.10336000
Ti	12.34155588	5.44057000	1.10336000
Ti	27.58904776	5.44057000	1.10336000
Ti	16.15343588	5.44057000	1.10336000
Ti	19.96530588	5.44057000	1.10336000
Ti	12.34155588	2.47241000	1.99114000
Ti	27.58904776	2.47241000	1.99114000
Ti	16.15343588	2.47241000	1.99114000
Ti	19.96530588	2.47241000	1.99114000
Ti	10.43561588	7.71594000	1.99115000
Ti	25.68310776	7.71594000	1.99115000
Ti	14.24749588	7.71594000	1.99115000
Ti	29.49498776	7.71594000	1.99115000
Ti	18.05936588	7.71594000	1.99115000
O	6.62374588	8.81302000	0.37332000
O	21.87123776	8.81302000	0.37332000
O	8.52968588	3.56949000	0.37332000
O	23.77717776	3.56949000	0.37332000
O	8.52968588	0.60134000	1.26110000
O	23.77717776	0.60134000	1.26110000
O	6.62374588	5.84486000	1.26111000
O	21.87123776	5.84486000	1.26111000
O	6.62374588	2.06812000	1.83340000
O	21.87123776	2.06812000	1.83340000
O	8.52968588	7.31164000	1.83340000
O	23.77717776	7.31164000	1.83340000
O	8.52968588	4.34349000	2.72118000
O	23.77717776	4.34349000	2.72118000
O	6.62374588	9.58701000	2.72118000
O	21.87123776	9.58701000	2.72118000
O	10.43561588	8.81302000	0.37332000
O	25.68310776	8.81302000	0.37332000
O	14.24749588	8.81302000	0.37332000
O	29.49498776	8.81302000	0.37332000
O	18.05936588	8.81302000	0.37332000
O	12.34155588	3.56949000	0.37332000
O	27.58904776	3.56949000	0.37332000
O	16.15343588	3.56949000	0.37332000
O	19.96530588	3.56949000	0.37332000
O	12.34155588	0.60134000	1.26110000
O	27.58904776	0.60134000	1.26110000
O	16.15343588	0.60134000	1.26110000
O	19.96530588	0.60134000	1.26110000
O	10.43561588	5.84486000	1.26111000
O	25.68310776	5.84486000	1.26111000
O	14.24749588	5.84486000	1.26111000
O	29.49498776	5.84486000	1.26111000
O	18.05936588	5.84486000	1.26111000
O	10.43561588	2.06812000	1.83340000
O	25.68310776	2.06812000	1.83340000
O	14.24749588	2.06812000	1.83340000
O	29.49498776	2.06812000	1.83340000
O	18.05936588	2.06812000	1.83340000
O	12.34155588	7.31164000	1.83340000
O	27.58904776	7.31164000	1.83340000
O	16.15343588	7.31164000	1.83340000
O	19.96530588	7.31164000	1.83340000
O	12.34155588	4.34349000	2.72118000
O	27.58904776	4.34349000	2.72118000
O	16.15343588	4.34349000	2.72118000
O	19.96530588	4.34349000	2.72118000
O	10.43561588	9.58701000	2.72118000
O	25.68310776	9.58701000	2.72118000
O	14.24749588	9.58701000	2.72118000
O	29.49498776	9.58701000	2.72118000
O	18.05936588	9.58701000	2.72118000
Ti	2.81187400	10.68408607	1.10336000
Ti	2.81187400	21.17113214	1.10336000
Ti	0.90594400	15.92761607	1.10336000
Ti	0.90594400	26.41466214	1.10336000
Ti	4.71781400	15.92761607	1.10336000
Ti	4.71781400	26.41466214	1.10336000
Ti	0.90594400	12.95945607	1.99114000
Ti	0.90594400	23.44650214	1.99114000
Ti	4.71781400	12.95945607	1.99114000
Ti	4.71781400	23.44650214	1.99114000
Ti	2.81187400	18.20298607	1.99115000
Ti	2.81187400	28.69003214	1.99115000
O	2.81187400	19.30006607	0.37332000
O	2.81187400	29.78711214	0.37332000
O	0.90594400	14.05653607	0.37332000
O	0.90594400	24.54358214	0.37332000
O	4.71781400	14.05653607	0.37332000
O	4.71781400	24.54358214	0.37332000
O	0.90594400	11.08838607	1.26110000
O	0.90594400	21.57543214	1.26110000
O	4.71781400	11.08838607	1.26110000
O	4.71781400	21.57543214	1.26110000
O	2.81187400	16.33190607	1.26111000
O	2.81187400	26.81895214	1.26111000
O	2.81187400	12.55516607	1.83340000
O	2.81187400	23.04221214	1.83340000
O	0.90594400	17.79868607	1.83340000
O	0.90594400	28.28573214	1.83340000
O	4.71781400	17.79868607	1.83340000
O	4.71781400	28.28573214	1.83340000
O	0.90594400	14.83053607	2.72118000
O	0.90594400	25.31758214	2.72118000
O	4.71781400	14.83053607	2.72118000
O	4.71781400	25.31758214	2.72118000
O	2.81187400	20.07405607	2.72118000
O	2.81187400	30.56110214	2.72118000
Ti	6.62374588	10.68408607	1.10336000
Ti	6.62374588	21.17113214	1.10336000
Ti	21.87123776	10.68408607	1.10336000
Ti	21.87123776	21.17113214	1.10336000
Ti	8.52968588	15.92761607	1.10336000
Ti	8.52968588	26.41466214	1.10336000
Ti	23.77717776	15.92761607	1.10336000
Ti	23.77717776	26.41466214	1.10336000
Ti	8.52968588	12.95945607	1.99114000
Ti	8.52968588	23.44650214	1.99114000
Ti	23.77717776	12.95945607	1.99114000
Ti	23.77717776	23.44650214	1.99114000
Ti	6.62374588	18.20298607	1.99115000
Ti	6.62374588	28.69003214	1.99115000
Ti	21.87123776	18.20298607	1.99115000
Ti	21.87123776	28.69003214	1.99115000
Ti	10.43561588	10.68408607	1.10336000
Ti	10.43561588	21.17113214	1.10336000
Ti	25.68310776	10.68408607	1.10336000
Ti	25.68310776	21.17113214	1.10336000
Ti	14.24749588	10.68408607	1.10336000
Ti	14.24749588	21.17113214	1.10336000
Ti	29.49498776	10.68408607	1.10336000
Ti	29.49498776	21.17113214	1.10336000
Ti	18.05936588	10.68408607	1.10336000
Ti	18.05936588	21.17113214	1.10336000
Ti	12.34155588	15.92761607	1.10336000
Ti	12.34155588	26.41466214	1.10336000
Ti	27.58904776	15.92761607	1.10336000
Ti	27.58904776	26.41466214	1.10336000
Ti	16.15343588	15.92761607	1.10336000
Ti	16.15343588	26.41466214	1.10336000
Ti	19.96530588	15.92761607	1.10336000
Ti	19.96530588	26.41466214	1.10336000
Ti	12.34155588	12.95945607	1.99114000
Ti	12.34155588	23.44650214	1.99114000
Ti	27.58904776	12.95945607	1.99114000
Ti	27.58904776	23.44650214	1.99114000
Ti	16.15343588	12.95945607	1.99114000
Ti	16.15343588	23.44650214	1.99114000
Ti	19.96530588	12.95945607	1.99114000
Ti	19.96530588	23.44650214	1.99114000
Ti	10.43561588	18.20298607	1.99115000
Ti	10.43561588	28.69003214	1.99115000
Ti	25.68310776	18.20298607	1.99115000
Ti	25.68310776	28.69003214	1.99115000
Ti	14.24749588	18.20298607	1.99115000
Ti	14.24749588	28.69003214	1.99115000
Ti	29.49498776	18.20298607	1.99115000
Ti	29.49498776	28.69003214	1.99115000
Ti	18.05936588	18.20298607	1.99115000
Ti	18.05936588	28.69003214	1.99115000
O	6.62374588	19.30006607	0.37332000
O	6.62374588	29.78711214	0.37332000
O	21.87123776	19.30006607	0.37332000
O	21.87123776	29.78711214	0.37332000
O	8.52968588	14.05653607	0.37332000
O	8.52968588	24.54358214	0.37332000
O	23.77717776	14.05653607	0.37332000
O	23.77717776	24.54358214	0.37332000
O	8.52968588	11.08838607	1.26110000
O	8.52968588	21.57543214	1.26110000
O	23.77717776	11.08838607	1.26110000
O	23.77717776	21.57543214	1.26110000
O	6.62374588	16.33190607	1.26111000
O	6.62374588	26.81895214	1.26111000
O	21.87123776	16.33190607	1.26111000
O	21.87123776	26.81895214	1.26111000
O	6.62374588	12.55516607	1.83340000
O	6.62374588	23.04221214	1.83340000
O	21.87123776	12.55516607	1.83340000
O	21.87123776	23.04221214	1.83340000
O	8.52968588	17.79868607	1.83340000
O	8.52968588	28.28573214	1.83340000
O	23.77717776	17.79868607	1.83340000
O	23.77717776	28.28573214	1.83340000
O	8.52968588	14.83053607	2.72118000
O	8.52968588	25.31758214	2.72118000
O	23.77717776	14.83053607	2.72118000
O	23.77717776	25.31758214	2.72118000
O	6.62374588	20.07405607	2.72118000
O	6.62374588	30.56110214	2.72118000
O	21.87123776	20.07405607	2.72118000
O	21.87123776	30.56110214	2.72118000
O	10.43561588	19.30006607	0.37332000
O	10.43561588	29.78711214	0.37332000
O	25.68310776	19.30006607	0.37332000
O	25.68310776	29.78711214	0.37332000
O	14.24749588	19.30006607	0.37332000
O	14.24749588	29.78711214	0.37332000
O	29.49498776	19.30006607	0.37332000
O	29.49498776	29.78711214	0.37332000
O	18.05936588	19.30006607	0.37332000
O	18.05936588	29.78711214	0.37332000
O	12.34155588	14.05653607	0.37332000
O	12.34155588	24.54358214	0.37332000
O	27.58904776	14.05653607	0.37332000
O	27.58904776	24.54358214	0.37332000
O	16.15343588	14.05653607	0.37332000
O	16.15343588	24.54358214	0.37332000
O	19.96530588	14.05653607	0.37332000
O	19.96530588	24.54358214	0.37332000
O	12.34155588	11.08838607	1.26110000
O	12.34155588	21.57543214	1.26110000
O	27.58904776	11.08838607	1.26110000
O	27.58904776	21.57543214	1.26110000
O	16.15343588	11.08838607	1.26110000
O	16.15343588	21.57543214	1.26110000
O	19.96530588	11.08838607	1.26110000
O	19.96530588	21.57543214	1.26110000
O	10.43561588	16.33190607	1.26111000
O	10.43561588	26.81895214	1.26111000
O	25.68310776	16.33190607	1.26111000
O	25.68310776	26.81895214	1.26111000
O	14.24749588	16.33190607	1.26111000
O	14.24749588	26.81895214	1.26111000
O	29.49498776	16.33190607	1.26111000
O	29.49498776	26.81895214	1.26111000
O	18.05936588	16.33190607	1.26111000
O	18.05936588	26.81895214	1.26111000
O	10.43561588	12.55516607	1.83340000
O	10.43561588	23.04221214	1.83340000
O	25.68310776	12.55516607	1.83340000
O	25.68310776	23.04221214	1.83340000
O	14.24749588	12.55516607	1.83340000
O	14.24749588	23.04221214	1.83340000
O	29.49498776	12.55516607	1.83340000
O	29.49498776	23.04221214	1.83340000
O	18.05936588	12.55516607	1.83340000
O	18.05936588	23.04221214	1.83340000
O	12.34155588	17.79868607	1.83340000
O	12.34155588	28.28573214	1.83340000
O	27.58904776	17.79868607	1.83340000
O	27.58904776	28.28573214	1.83340000
O	16.15343588	17.79868607	1.83340000
O	16.15343588	28.28573214	1.83340000
O	19.96530588	17.79868607	1.83340000
O	19.96530588	28.28573214	1.83340000
O	12.34155588	14.83053607	2.72118000
O	12.34155588	25.31758214	2.72118000
O	27.58904776	14.83053607	2.72118000
O	27.58904776	25.31758214	2.72118000
O	16.15343588	14.83053607	2.72118000
O	16.15343588	25.31758214	2.72118000
O	19.96530588	14.83053607	2.72118000
O	19.96530588	25.31758214	2.72118000
O	10.43561588	20.07405607	2.72118000
O	10.43561588	30.56110214	2.72118000
O	25.68310776	20.07405607	2.72118000
O	25.68310776	30.56110214	2.72118000
O	14.24749588	20.07405607	2.72118000
O	14.24749588	30.56110214	2.72118000
O	29.49498776	20.07405607	2.72118000
O	29.49498776	30.56110214	2.72118000
O	18.05936588	20.07405607	2.72118000
O	18.05936588	30.56110214	2.72118000
Ti	6.58551116	9.19564454	4.72160256
Ti	6.81046578	6.32557023	5.44455445
Ti	2.77534160	9.13914201	4.71332323
Ti	0.93076203	4.08003765	4.77770594
Ti	4.77830379	4.02215706	4.77318333
Ti	0.87954053	1.15685298	5.54688882
Ti	4.78408057	1.08292412	5.56697599
Ti	2.92297344	6.20377673	5.54330774
O	6.60177464	7.40940402	3.91727591
O	6.70397536	4.55469392	4.59815352
O	6.75908735	0.50846525	5.81522644
O	6.55897928	8.00328679	6.43669130
O	2.79708464	7.25682475	3.97591342
O	0.88365640	2.21259755	3.92450047
O	4.89168661	2.04582842	3.92137234
O	0.88720426	9.49814123	4.76281314
O	4.70415902	9.53371465	4.67998202
O	2.92276439	4.37773366	4.86745647
O	2.87412682	0.49985158	5.92986447
O	0.99945063	5.76671420	5.85109566
O	4.91833696	5.80090864	5.85037788
O	1.06084933	2.95529186	6.33864819
O	4.80413277	2.80334529	6.30114422
O	2.94609664	8.00701811	6.36537876
Ti	21.80104499	9.18576266	4.77930345
Ti	8.53230065	3.95466154	4.79135606
Ti	23.76954329	4.00459407	4.63936590
Ti	8.57053387	1.05458766	5.53907294
Ti	23.77524644	1.10107335	5.52708648
Ti	21.83697441	6.29646042	5.55490495
Ti	10.41809645	9.17080581	4.69216995
Ti	25.67993823	9.30876144	4.72380968
Ti	14.19910140	9.32958827	4.75261900
Ti	29.43180993	9.13799603	4.67263948
Ti	17.96508199	9.12420363	4.75067538
Ti	12.45529716	4.09221264	4.66354556
Ti	27.60828742	4.12996712	4.73492909
Ti	16.16229541	3.94946266	4.75091226
Ti	19.98554721	4.00938300	4.89892246
Ti	12.38023764	1.07556496	5.44679983
Ti	27.56371870	1.07720472	5.60789027
Ti	16.16727709	1.05068784	5.53595717
Ti	20.01832699	1.00028575	5.43528455
Ti	10.54632404	6.28399240	5.59553813
Ti	25.70469430	6.30047069	5.54674766
Ti	14.37995283	6.34469063	5.37351062
Ti	29.62390844	6.34407508	5.52481032
Ti	18.09286357	6.24349448	5.49148656
O	21.89786784	7.28672420	3.91691064
O	8.39224598	2.12267375	3.92620596
O	23.81623076	2.14183694	3.93743834
O	8.54422238	9.61010689	4.74401857
O	23.67795449	9.60392055	4.88360014
O	21.93349302	4.42394764	4.82546264
O	21.85049118	0.60999587	5.74715517
O	8.66789755	5.74421636	5.92094524
O	23.69327799	5.79834830	5.93568425
O	8.47475282	2.75413859	6.36199467
O	23.89139027	2.87010991	6.31567998
O	21.94340833	8.03591548	6.40194688
O	10.49326193	7.32700329	3.91983481
O	25.53639397	7.39216913	3.98715706
O	14.39899959	7.41000426	3.94474132
O	29.46468060	7.30736357	3.90276049
O	18.11016486	7.36424569	3.91616405
O	12.28820853	2.12138048	3.87893854
O	27.42126385	2.04818758	3.99909680
O	16.23982334	2.02816704	3.94651037
O	19.95599110	2.21137465	3.97129877
O	12.30274479	9.61432479	4.85023614
O	27.62532653	9.75176246	4.75737246
O	16.07715526	9.72440646	4.77339158
O	19.90397367	9.56043268	4.89407254
O	10.47631986	4.37277256	4.74676827
O	25.72174987	4.39676748	4.73505207
O	14.35730171	4.49468399	4.56158268
O	29.58877511	4.45405921	4.74483120
O	18.09679613	4.31248158	4.85581179
O	10.44395488	0.70156442	5.76746985
O	25.66656448	0.54853202	5.72147061
O	14.25175556	0.52739666	5.61743805
O	29.52407373	0.62341327	5.82804537
O	18.09662836	0.55056998	5.68730178
O	12.46679736	5.89586635	5.59599353
O	27.59911791	5.93617213	5.71248747
O	16.30823586	5.73043952	5.92069676
O	19.92829737	5.89374659	5.79463410
O	12.47906588	2.87948678	6.33334579
O	27.81195464	2.99320272	6.24669404
O	16.12525719	2.74372667	6.47998872
O	19.86690049	2.66199253	6.36454475
O	10.41556351	8.03092583	6.35362602
O	25.85719163	8.11407339	6.37069085
O	14.33946023	8.08313531	6.31476208
O	29.76107927	8.03117957	6.42841039
O	17.89597408	8.01883520	6.40119930
Ti	6.67221388	19.69672788	4.78369916
Ti	6.60360364	30.24257072	4.64160217
Ti	6.53386990	16.77556850	5.44977416
Ti	6.60019613	27.31823325	5.48585730
Ti	2.83941644	19.93293223	4.74896430
Ti	2.90685734	30.20577100	4.75159266
Ti	0.97122074	14.35927361	4.66023952
Ti	0.88450069	24.98338062	4.63329920
Ti	4.53934368	14.50829378	4.75614432
Ti	4.69688027	24.99496179	4.80295364
Ti	0.99548509	11.42522396	5.44589635
Ti	0.91035896	22.11816599	5.58805129
Ti	4.76694687	11.53003115	5.51205505
Ti	4.76876393	22.17190011	5.55756924
Ti	2.77120972	16.93129378	5.66038000
Ti	2.65962496	27.28001466	5.52913077
O	6.61383757	17.84592989	3.92051931
O	6.84947750	28.35287904	3.95972577
O	6.56207155	14.93574167	4.80787679
O	6.59451649	25.45798611	4.81477108
O	6.59362883	10.99454933	5.74759250
O	6.68343393	21.54288558	5.88139220
O	6.43810955	18.51278027	6.32866607
O	6.43817808	29.13266991	6.35470829
O	2.77856142	17.97358164	3.97524256
O	3.01974339	28.37314413	3.94276978
O	0.87501371	12.43173169	3.80995116
O	0.70041961	23.05515297	3.94065815
O	4.81935254	12.62284138	4.05271664
O	4.85793098	23.17114123	3.98375840
O	0.96152331	20.24297297	4.89822416
O	0.95165487	30.72785359	4.95119721
O	4.82058284	20.31660248	4.86428545
O	4.75405495	30.61626624	4.88019090
O	2.71458066	15.12479410	4.69348230
O	2.72890289	25.26263813	4.83883993
O	2.80196050	10.94738057	5.89536867
O	2.84221803	21.68749103	5.74483683
O	0.87280951	16.51223187	6.06084752
O	0.75241398	26.95808229	5.44793424
O	4.64241378	16.29306948	5.71526932
O	4.61080879	26.93601513	5.61913450
O	0.97117264	13.34102806	6.28065664
O	0.60081593	23.92692957	6.29566040
O	4.51493158	13.35828523	6.38959801
O	4.63702900	23.91603530	6.44168783
O	2.91237593	18.72352129	6.37389147
O	2.78038563	29.02502637	6.24858269
Ti	21.88075865	19.66591215	4.72664174
Ti	21.91522902	30.18402514	4.72224487
Ti	8.48653312	14.43248059	4.75756162
Ti	8.43064922	24.97567364	4.74213430
Ti	23.78617640	14.43473009	4.78876091
Ti	23.70673730	24.93290542	4.67325796
Ti	8.47083843	11.50008437	5.44281884
Ti	8.53836418	22.21365045	5.59281912
Ti	23.77313639	11.56873953	5.57781746
Ti	23.68385189	22.03250696	5.48855234
Ti	21.95489906	16.75634467	5.44433867
Ti	21.85379884	27.30290479	5.57387002
Ti	10.33709689	19.75835218	4.68098835
Ti	10.41375430	30.27245430	4.76582662
Ti	25.69107719	19.73361690	4.69984122
Ti	25.70976891	30.13932357	4.81039546
Ti	14.17097056	19.82174556	4.78885154
Ti	14.15712338	30.19962029	4.70992059
Ti	29.50379941	19.76462914	4.81493234
Ti	29.43046376	30.26031763	4.85500475
Ti	17.97041165	19.63546301	4.76395924
Ti	18.12173107	30.14819479	4.79724773
Ti	12.40385518	14.48312631	4.72881450
Ti	12.34827822	25.04178140	4.78818472
Ti	27.58703927	14.47684170	4.84711933
Ti	27.54500202	24.91393886	4.80568244
Ti	16.12243782	14.50790770	4.80636599
Ti	16.15172947	25.00731698	4.90049969
Ti	20.06878640	14.43420230	4.76677387
Ti	19.93532368	24.91730620	4.88733695
Ti	12.24809673	11.54455464	5.47105304
Ti	12.25067639	22.12788133	5.44048037
Ti	27.59488527	11.61604838	5.65190277
Ti	27.58636096	22.00298484	5.51783667
Ti	16.13009300	11.61083607	5.58288386
Ti	16.13630053	22.07681124	5.54665257
Ti	19.87187358	11.43512073	5.46452514
Ti	19.82208513	22.01115797	5.46895531
Ti	10.29207723	16.77911648	5.52931671
Ti	10.48097044	27.36880443	5.52970560
Ti	25.71503641	16.77169526	5.57804754
Ti	25.68910082	27.22669351	5.48707597
Ti	14.22224759	16.81745026	5.62856741
Ti	14.21456156	27.33183913	5.52921586
Ti	29.51963869	16.88133410	5.63216234
Ti	29.40623197	27.31670280	5.40912966
Ti	18.10501556	16.75936188	5.51881419
Ti	18.07121181	27.26591909	5.66090690
O	21.92049680	17.84718283	3.85524602
O	21.83347140	28.25333181	3.97621402
O	8.63488396	12.61912760	3.91598100
O	8.38971272	23.09882044	3.90234978
O	23.80910421	12.63702131	3.93991852
O	23.76705396	22.96901196	3.91499792
O	8.51187820	20.35624849	4.59277254
O	8.55480628	30.62791451	4.72340259
O	23.74958815	20.09484356	4.92786451
O	23.78389968	30.69840942	4.70091159
O	21.95566828	14.94995752	4.56586689
O	21.74730870	25.43453782	4.69503276
O	21.83554567	11.09160078	5.61267282
O	21.67043951	21.53605075	5.67039199
O	8.44134680	16.15417787	5.73295870
O	8.51364521	26.81277036	5.88254671
O	23.76393076	16.28283973	5.75582115
O	23.74942689	26.80038593	5.91239119
O	8.40017344	13.36634835	6.33451685
O	8.41419152	23.94267799	6.32868737
O	24.01353629	13.27462598	6.38223131
O	23.70253190	23.81240026	6.30084324
O	21.96307395	18.47608036	6.33955127
O	21.86125006	29.15814093	6.34273139
O	10.27442235	17.91673759	3.93521305
O	10.54922767	28.42707337	3.95567040
O	25.70081177	17.79446962	3.95543370
O	25.62990436	28.29502472	3.93015892
O	14.00788355	17.97274758	3.96305518
O	14.20558182	28.37935151	3.93677544
O	29.55945288	17.78779161	3.95018752
O	29.23409971	28.37155497	3.93577236
O	18.12986241	17.78267888	3.95419326
O	18.09812500	28.26815785	3.92811440
O	12.38855013	12.65195709	3.89949227
O	12.27585693	23.24456762	3.95029171
O	27.64880268	12.72136998	3.98796336
O	27.67006649	22.95009208	3.97432839
O	16.14979129	12.61482125	3.94998466
O	16.01032154	23.18318194	3.98105765
O	20.06481405	12.57873009	3.94382720
O	20.04932674	23.02056956	3.94453672
O	12.28349537	20.18408249	4.98529313
O	12.29211703	30.62850452	4.80115654
O	27.61583279	20.21037897	4.79716574
O	27.57245122	30.71350114	4.88943117
O	16.12722226	20.25228976	4.78060588
O	16.16360767	30.53791146	4.86966915
O	19.92816333	19.99673066	4.83154152
O	20.00554074	30.62637604	4.66364185
O	10.38521329	14.84722722	4.58817927
O	10.31812921	25.55082823	4.72085609
O	25.66627687	14.92257277	4.78569279
O	25.61233093	25.42170777	4.78099080
O	14.22989222	14.96929328	4.75112191
O	14.24917486	25.33742603	4.86117931
O	29.55140073	14.96379380	4.99252039
O	29.39902180	25.41769138	4.63993838
O	18.07343065	14.88274396	4.68083412
O	18.07261879	25.31685386	4.74321808
O	10.34358287	11.03614828	5.54807196
O	10.42274678	21.75103151	5.97305337
O	25.66636523	11.00839421	5.85985979
O	25.63432707	21.64156508	5.49424767
O	14.20915943	11.26953033	5.49368090
O	14.21390963	21.75851434	5.67171350
O	29.55954800	11.11537863	5.62076340
O	29.50647803	21.51159190	5.88077083
O	18.01609062	11.06859358	5.88273191
O	18.04454797	21.45617167	5.77318201
O	12.14772205	16.42788298	5.61853418
O	12.25557849	26.82022250	5.78887780
O	27.61341059	16.28285009	5.79685477
O	27.58421679	26.59119066	5.87836026
O	16.09988075	16.36055185	5.64399306
O	16.07238424	26.79643020	5.89829687
O	19.97807038	16.17225433	5.95953560
O	19.91145462	26.78407342	5.87404885
O	12.10558769	13.26219332	6.28865512
O	12.34110438	23.92174015	6.37179677
O	27.17029576	13.32564939	6.34975839
O	27.78549286	23.74013437	6.32794845
O	16.04230084	13.45143792	6.35728727
O	16.30826673	23.79791956	6.39110189
O	19.97460305	13.29031295	6.35404269
O	19.86840063	23.64006772	6.40997390
O	10.36448911	18.57626614	6.27958995
O	10.40046438	29.19827241	6.38118502
O	25.65937157	18.66719975	6.42573722
O	25.68858422	29.00676100	6.35418130
O	14.44547139	18.70076132	6.22111097
O	14.08238586	29.08696588	6.27655288
O	29.43878457	18.61055522	6.41008145
O	29.43125224	28.93746774	6.38428286
O	18.07482285	18.51960936	6.45781839
O	18.12210530	29.02950965	6.45314497
H	13.91657263	14.05592903	7.62651028
H	13.51656276	14.78026594	11.15141961
H	15.16431437	18.13087729	9.01054152
O	14.24202080	16.33583647	7.53233163
O	13.95124315	14.36676922	8.57051456
C	14.14485046	15.64522263	8.64197961
C	14.38089884	16.30605453	9.98722430
C	13.92889876	15.80538579	11.14631014
C	14.87515769	17.61007366	9.93647619
N	13.21845716	19.26111489	15.61206515
N	15.70905405	22.24573795	17.11000571
N	15.93142912	20.24094139	14.91499601
N	13.00579457	21.26882041	17.80968929
C	21.53530451	21.99856183	15.66546072
C	14.46360883	24.16970322	22.48951715
C	7.47021701	19.42252445	17.11920049
C	19.13249462	22.16316491	15.59734044
C	14.19609882	24.02891270	20.11231894
C	9.84876735	19.21836824	17.36352974
C	20.52170565	23.73609125	14.34116430
C	13.98205555	26.15593622	21.17386135
C	8.49563686	17.32149563	17.98358105
C	14.50966132	18.75046304	13.52768184
C	17.76306604	21.61194628	15.86699697
C	14.22378043	23.16626269	18.86823860
C	11.21001904	19.70172037	17.09348956
C	15.74889314	19.33983208	13.89660057
C	17.22246253	20.66434611	14.97414141
C	13.13670631	22.27258002	18.71447105
C	11.79656540	20.68087481	17.90280470
C	16.98666131	19.30407915	13.14688281
C	17.91829843	19.99973484	13.86028489
C	11.94965659	22.26990977	19.53800562
C	11.13676213	21.27470108	19.01740171
C	13.27852888	18.69478440	14.33424177
C	17.02850136	22.43752893	16.76093181
C	15.37453182	23.20320542	18.05985983
C	11.90445441	19.11540439	16.00964314
C	11.98517369	18.29603542	13.88328688
C	17.62088040	23.38927568	17.73178645
C	16.63469361	23.80939293	18.57682128
C	11.16670359	18.51833707	14.94885072
H	11.65763904	18.05762400	12.86600566
H	18.68630083	23.66214150	17.80741916
H	16.87175076	24.57662375	19.35439207
H	10.09053090	18.62622977	14.87369320
H	17.11027590	18.78142888	12.21442924
H	18.99057460	20.16424995	13.64013492
H	11.74341293	22.92429873	20.43099859
H	10.06810290	21.02408728	19.32549730
H	20.58208018	24.64561373	13.74546740
H	13.68997371	27.18453828	21.05342289
H	8.33786270	16.31613253	18.37456452
H	22.48978648	21.61564611	16.03738230
H	14.73572796	23.66338662	23.41974621
H	6.61107764	20.07503825	17.03924252
H	15.18380427	20.58366609	15.52725674
H	13.79859656	21.03531414	17.19992989
C	22.95723740	23.36178053	14.09471316
H	23.58156710	22.48066839	14.04391598
H	23.49945622	24.19817583	14.62926226
H	22.86625245	23.72532265	13.12161847
C	20.18845268	20.60458524	17.24773382
H	21.12309892	20.09715279	17.42750982
H	19.39413126	19.84883224	17.03970031
H	19.98884697	21.10382054	18.24268106
C	18.07414471	23.97703701	14.03867284
H	17.77084265	23.38917436	13.12919380
H	18.28140548	25.00110242	13.83381895
H	17.21412504	24.01005432	14.73953424
C	11.02438439	17.27041202	18.39812264
H	11.38407323	17.79467837	19.34751107
H	11.76883170	17.36777248	17.63041043
H	10.88105295	16.22897521	18.68891263
C	8.95932771	21.41736039	16.53082935
H	9.47928098	21.42526692	15.60178175
H	9.72051905	21.85219376	17.20426474
H	8.11082393	22.09794310	16.50328141
C	5.96435186	17.55510342	17.59480025
H	5.52551886	17.36560867	16.55899719
H	5.24081922	18.21935446	18.09698772
H	5.94769063	16.55984966	18.11896835
C	13.50083392	25.88763787	18.64973606
H	13.44022417	25.02701788	17.98099947
H	14.23278246	26.54444960	18.19234966
H	12.44624363	26.32257657	18.77597888
C	14.45797913	21.89289816	21.41788203
H	15.11976238	21.54839728	20.63052188
H	13.48720893	21.42651654	21.33275683
H	14.94371598	21.59656969	22.32431493
C	14.21257301	26.36254993	23.65853503
H	13.42826567	26.02494635	24.37614873
H	14.03677728	27.43501348	23.50897843
H	15.13286092	26.15629322	24.20035590
C	21.65201471	23.08207593	14.74612662
C	20.29078616	21.53646960	16.11772522
C	19.23283448	23.24946427	14.69310024
C	13.92379243	25.38713948	19.99989633
C	14.37419793	23.38031071	21.33951998
C	14.29464035	25.54808553	22.40719707
C	9.74767368	17.90762757	17.88753902
C	8.74390015	20.01617520	16.99083765
C	7.32292687	18.08021372	17.50017430
H	13.71277195	16.13305596	13.29017564
H	15.14909444	19.47430464	11.04848597
C	14.45693731	17.88168634	12.32708197
C	14.05196886	16.54639523	12.35394217
C	14.84328663	18.41037555	11.06778471

Ti O H C N 0
6-31G*
****

