%chk=f00018067.chk
%mem=24GB
%nproc=12
#p b3lyp/6-31G*

title

0 1
Ti	2.81187400	0.19704000	1.10336000
Ti	0.90594400	5.44057000	1.10336000
Ti	4.71781400	5.44057000	1.10336000
Ti	0.90594400	2.47241000	1.99114000
Ti	4.71781400	2.47241000	1.99114000
Ti	2.81187400	7.71594000	1.99115000
O	2.81187400	8.81302000	0.37332000
O	0.90594400	3.56949000	0.37332000
O	4.71781400	3.56949000	0.37332000
O	0.90594400	0.60134000	1.26110000
O	4.71781400	0.60134000	1.26110000
O	2.81187400	5.84486000	1.26111000
O	2.81187400	2.06812000	1.83340000
O	0.90594400	7.31164000	1.83340000
O	4.71781400	7.31164000	1.83340000
O	0.90594400	4.34349000	2.72118000
O	4.71781400	4.34349000	2.72118000
O	2.81187400	9.58701000	2.72118000
Ti	6.62374588	0.19704000	1.10336000
Ti	21.87123776	0.19704000	1.10336000
Ti	8.52968588	5.44057000	1.10336000
Ti	23.77717776	5.44057000	1.10336000
Ti	8.52968588	2.47241000	1.99114000
Ti	23.77717776	2.47241000	1.99114000
Ti	6.62374588	7.71594000	1.99115000
Ti	21.87123776	7.71594000	1.99115000
Ti	10.43561588	0.19704000	1.10336000
Ti	25.68310776	0.19704000	1.10336000
Ti	14.24749588	0.19704000	1.10336000
Ti	29.49498776	0.19704000	1.10336000
Ti	18.05936588	0.19704000	1.10336000
Ti	12.34155588	5.44057000	1.10336000
Ti	27.58904776	5.44057000	1.10336000
Ti	16.15343588	5.44057000	1.10336000
Ti	19.96530588	5.44057000	1.10336000
Ti	12.34155588	2.47241000	1.99114000
Ti	27.58904776	2.47241000	1.99114000
Ti	16.15343588	2.47241000	1.99114000
Ti	19.96530588	2.47241000	1.99114000
Ti	10.43561588	7.71594000	1.99115000
Ti	25.68310776	7.71594000	1.99115000
Ti	14.24749588	7.71594000	1.99115000
Ti	29.49498776	7.71594000	1.99115000
Ti	18.05936588	7.71594000	1.99115000
O	6.62374588	8.81302000	0.37332000
O	21.87123776	8.81302000	0.37332000
O	8.52968588	3.56949000	0.37332000
O	23.77717776	3.56949000	0.37332000
O	8.52968588	0.60134000	1.26110000
O	23.77717776	0.60134000	1.26110000
O	6.62374588	5.84486000	1.26111000
O	21.87123776	5.84486000	1.26111000
O	6.62374588	2.06812000	1.83340000
O	21.87123776	2.06812000	1.83340000
O	8.52968588	7.31164000	1.83340000
O	23.77717776	7.31164000	1.83340000
O	8.52968588	4.34349000	2.72118000
O	23.77717776	4.34349000	2.72118000
O	6.62374588	9.58701000	2.72118000
O	21.87123776	9.58701000	2.72118000
O	10.43561588	8.81302000	0.37332000
O	25.68310776	8.81302000	0.37332000
O	14.24749588	8.81302000	0.37332000
O	29.49498776	8.81302000	0.37332000
O	18.05936588	8.81302000	0.37332000
O	12.34155588	3.56949000	0.37332000
O	27.58904776	3.56949000	0.37332000
O	16.15343588	3.56949000	0.37332000
O	19.96530588	3.56949000	0.37332000
O	12.34155588	0.60134000	1.26110000
O	27.58904776	0.60134000	1.26110000
O	16.15343588	0.60134000	1.26110000
O	19.96530588	0.60134000	1.26110000
O	10.43561588	5.84486000	1.26111000
O	25.68310776	5.84486000	1.26111000
O	14.24749588	5.84486000	1.26111000
O	29.49498776	5.84486000	1.26111000
O	18.05936588	5.84486000	1.26111000
O	10.43561588	2.06812000	1.83340000
O	25.68310776	2.06812000	1.83340000
O	14.24749588	2.06812000	1.83340000
O	29.49498776	2.06812000	1.83340000
O	18.05936588	2.06812000	1.83340000
O	12.34155588	7.31164000	1.83340000
O	27.58904776	7.31164000	1.83340000
O	16.15343588	7.31164000	1.83340000
O	19.96530588	7.31164000	1.83340000
O	12.34155588	4.34349000	2.72118000
O	27.58904776	4.34349000	2.72118000
O	16.15343588	4.34349000	2.72118000
O	19.96530588	4.34349000	2.72118000
O	10.43561588	9.58701000	2.72118000
O	25.68310776	9.58701000	2.72118000
O	14.24749588	9.58701000	2.72118000
O	29.49498776	9.58701000	2.72118000
O	18.05936588	9.58701000	2.72118000
Ti	2.81187400	10.68408607	1.10336000
Ti	2.81187400	21.17113214	1.10336000
Ti	0.90594400	15.92761607	1.10336000
Ti	0.90594400	26.41466214	1.10336000
Ti	4.71781400	15.92761607	1.10336000
Ti	4.71781400	26.41466214	1.10336000
Ti	0.90594400	12.95945607	1.99114000
Ti	0.90594400	23.44650214	1.99114000
Ti	4.71781400	12.95945607	1.99114000
Ti	4.71781400	23.44650214	1.99114000
Ti	2.81187400	18.20298607	1.99115000
Ti	2.81187400	28.69003214	1.99115000
O	2.81187400	19.30006607	0.37332000
O	2.81187400	29.78711214	0.37332000
O	0.90594400	14.05653607	0.37332000
O	0.90594400	24.54358214	0.37332000
O	4.71781400	14.05653607	0.37332000
O	4.71781400	24.54358214	0.37332000
O	0.90594400	11.08838607	1.26110000
O	0.90594400	21.57543214	1.26110000
O	4.71781400	11.08838607	1.26110000
O	4.71781400	21.57543214	1.26110000
O	2.81187400	16.33190607	1.26111000
O	2.81187400	26.81895214	1.26111000
O	2.81187400	12.55516607	1.83340000
O	2.81187400	23.04221214	1.83340000
O	0.90594400	17.79868607	1.83340000
O	0.90594400	28.28573214	1.83340000
O	4.71781400	17.79868607	1.83340000
O	4.71781400	28.28573214	1.83340000
O	0.90594400	14.83053607	2.72118000
O	0.90594400	25.31758214	2.72118000
O	4.71781400	14.83053607	2.72118000
O	4.71781400	25.31758214	2.72118000
O	2.81187400	20.07405607	2.72118000
O	2.81187400	30.56110214	2.72118000
Ti	6.62374588	10.68408607	1.10336000
Ti	6.62374588	21.17113214	1.10336000
Ti	21.87123776	10.68408607	1.10336000
Ti	21.87123776	21.17113214	1.10336000
Ti	8.52968588	15.92761607	1.10336000
Ti	8.52968588	26.41466214	1.10336000
Ti	23.77717776	15.92761607	1.10336000
Ti	23.77717776	26.41466214	1.10336000
Ti	8.52968588	12.95945607	1.99114000
Ti	8.52968588	23.44650214	1.99114000
Ti	23.77717776	12.95945607	1.99114000
Ti	23.77717776	23.44650214	1.99114000
Ti	6.62374588	18.20298607	1.99115000
Ti	6.62374588	28.69003214	1.99115000
Ti	21.87123776	18.20298607	1.99115000
Ti	21.87123776	28.69003214	1.99115000
Ti	10.43561588	10.68408607	1.10336000
Ti	10.43561588	21.17113214	1.10336000
Ti	25.68310776	10.68408607	1.10336000
Ti	25.68310776	21.17113214	1.10336000
Ti	14.24749588	10.68408607	1.10336000
Ti	14.24749588	21.17113214	1.10336000
Ti	29.49498776	10.68408607	1.10336000
Ti	29.49498776	21.17113214	1.10336000
Ti	18.05936588	10.68408607	1.10336000
Ti	18.05936588	21.17113214	1.10336000
Ti	12.34155588	15.92761607	1.10336000
Ti	12.34155588	26.41466214	1.10336000
Ti	27.58904776	15.92761607	1.10336000
Ti	27.58904776	26.41466214	1.10336000
Ti	16.15343588	15.92761607	1.10336000
Ti	16.15343588	26.41466214	1.10336000
Ti	19.96530588	15.92761607	1.10336000
Ti	19.96530588	26.41466214	1.10336000
Ti	12.34155588	12.95945607	1.99114000
Ti	12.34155588	23.44650214	1.99114000
Ti	27.58904776	12.95945607	1.99114000
Ti	27.58904776	23.44650214	1.99114000
Ti	16.15343588	12.95945607	1.99114000
Ti	16.15343588	23.44650214	1.99114000
Ti	19.96530588	12.95945607	1.99114000
Ti	19.96530588	23.44650214	1.99114000
Ti	10.43561588	18.20298607	1.99115000
Ti	10.43561588	28.69003214	1.99115000
Ti	25.68310776	18.20298607	1.99115000
Ti	25.68310776	28.69003214	1.99115000
Ti	14.24749588	18.20298607	1.99115000
Ti	14.24749588	28.69003214	1.99115000
Ti	29.49498776	18.20298607	1.99115000
Ti	29.49498776	28.69003214	1.99115000
Ti	18.05936588	18.20298607	1.99115000
Ti	18.05936588	28.69003214	1.99115000
O	6.62374588	19.30006607	0.37332000
O	6.62374588	29.78711214	0.37332000
O	21.87123776	19.30006607	0.37332000
O	21.87123776	29.78711214	0.37332000
O	8.52968588	14.05653607	0.37332000
O	8.52968588	24.54358214	0.37332000
O	23.77717776	14.05653607	0.37332000
O	23.77717776	24.54358214	0.37332000
O	8.52968588	11.08838607	1.26110000
O	8.52968588	21.57543214	1.26110000
O	23.77717776	11.08838607	1.26110000
O	23.77717776	21.57543214	1.26110000
O	6.62374588	16.33190607	1.26111000
O	6.62374588	26.81895214	1.26111000
O	21.87123776	16.33190607	1.26111000
O	21.87123776	26.81895214	1.26111000
O	6.62374588	12.55516607	1.83340000
O	6.62374588	23.04221214	1.83340000
O	21.87123776	12.55516607	1.83340000
O	21.87123776	23.04221214	1.83340000
O	8.52968588	17.79868607	1.83340000
O	8.52968588	28.28573214	1.83340000
O	23.77717776	17.79868607	1.83340000
O	23.77717776	28.28573214	1.83340000
O	8.52968588	14.83053607	2.72118000
O	8.52968588	25.31758214	2.72118000
O	23.77717776	14.83053607	2.72118000
O	23.77717776	25.31758214	2.72118000
O	6.62374588	20.07405607	2.72118000
O	6.62374588	30.56110214	2.72118000
O	21.87123776	20.07405607	2.72118000
O	21.87123776	30.56110214	2.72118000
O	10.43561588	19.30006607	0.37332000
O	10.43561588	29.78711214	0.37332000
O	25.68310776	19.30006607	0.37332000
O	25.68310776	29.78711214	0.37332000
O	14.24749588	19.30006607	0.37332000
O	14.24749588	29.78711214	0.37332000
O	29.49498776	19.30006607	0.37332000
O	29.49498776	29.78711214	0.37332000
O	18.05936588	19.30006607	0.37332000
O	18.05936588	29.78711214	0.37332000
O	12.34155588	14.05653607	0.37332000
O	12.34155588	24.54358214	0.37332000
O	27.58904776	14.05653607	0.37332000
O	27.58904776	24.54358214	0.37332000
O	16.15343588	14.05653607	0.37332000
O	16.15343588	24.54358214	0.37332000
O	19.96530588	14.05653607	0.37332000
O	19.96530588	24.54358214	0.37332000
O	12.34155588	11.08838607	1.26110000
O	12.34155588	21.57543214	1.26110000
O	27.58904776	11.08838607	1.26110000
O	27.58904776	21.57543214	1.26110000
O	16.15343588	11.08838607	1.26110000
O	16.15343588	21.57543214	1.26110000
O	19.96530588	11.08838607	1.26110000
O	19.96530588	21.57543214	1.26110000
O	10.43561588	16.33190607	1.26111000
O	10.43561588	26.81895214	1.26111000
O	25.68310776	16.33190607	1.26111000
O	25.68310776	26.81895214	1.26111000
O	14.24749588	16.33190607	1.26111000
O	14.24749588	26.81895214	1.26111000
O	29.49498776	16.33190607	1.26111000
O	29.49498776	26.81895214	1.26111000
O	18.05936588	16.33190607	1.26111000
O	18.05936588	26.81895214	1.26111000
O	10.43561588	12.55516607	1.83340000
O	10.43561588	23.04221214	1.83340000
O	25.68310776	12.55516607	1.83340000
O	25.68310776	23.04221214	1.83340000
O	14.24749588	12.55516607	1.83340000
O	14.24749588	23.04221214	1.83340000
O	29.49498776	12.55516607	1.83340000
O	29.49498776	23.04221214	1.83340000
O	18.05936588	12.55516607	1.83340000
O	18.05936588	23.04221214	1.83340000
O	12.34155588	17.79868607	1.83340000
O	12.34155588	28.28573214	1.83340000
O	27.58904776	17.79868607	1.83340000
O	27.58904776	28.28573214	1.83340000
O	16.15343588	17.79868607	1.83340000
O	16.15343588	28.28573214	1.83340000
O	19.96530588	17.79868607	1.83340000
O	19.96530588	28.28573214	1.83340000
O	12.34155588	14.83053607	2.72118000
O	12.34155588	25.31758214	2.72118000
O	27.58904776	14.83053607	2.72118000
O	27.58904776	25.31758214	2.72118000
O	16.15343588	14.83053607	2.72118000
O	16.15343588	25.31758214	2.72118000
O	19.96530588	14.83053607	2.72118000
O	19.96530588	25.31758214	2.72118000
O	10.43561588	20.07405607	2.72118000
O	10.43561588	30.56110214	2.72118000
O	25.68310776	20.07405607	2.72118000
O	25.68310776	30.56110214	2.72118000
O	14.24749588	20.07405607	2.72118000
O	14.24749588	30.56110214	2.72118000
O	29.49498776	20.07405607	2.72118000
O	29.49498776	30.56110214	2.72118000
O	18.05936588	20.07405607	2.72118000
O	18.05936588	30.56110214	2.72118000
Ti	6.57648104	9.19168471	4.69414693
Ti	6.81995760	6.30759281	5.46789124
Ti	2.78298401	9.16165830	4.69833568
Ti	0.92909613	4.07444079	4.79156930
Ti	4.76395150	4.05489595	4.79853343
Ti	0.88314451	1.16087603	5.51010388
Ti	4.77996054	1.07026735	5.53780443
Ti	2.90363855	6.19479106	5.52468662
O	6.62727008	7.39548160	3.89447900
O	6.67770598	4.51719362	4.56735798
O	6.66468798	0.56074011	5.91631299
O	6.56824401	8.06240744	6.39678405
O	2.84316173	7.21856668	4.01118629
O	0.92990003	2.14626630	4.00927782
O	4.89386411	2.06606859	3.91826144
O	0.89794374	9.54227878	4.73040045
O	4.68689143	9.53570755	4.67063813
O	2.87302574	4.41953798	4.81133025
O	2.87557849	0.53653808	5.94322108
O	1.00567350	5.75778958	5.90312795
O	4.90238375	5.76353182	5.79324969
O	1.05027886	2.99504363	6.36689450
O	4.80361279	2.81427315	6.33260955
O	2.90912715	8.04057609	6.32940973
Ti	21.79534227	9.15745718	4.76076664
Ti	8.50082999	3.93232438	4.78848364
Ti	23.75902325	3.98897915	4.65879632
Ti	8.51686074	1.04485398	5.53471311
Ti	23.79848232	1.12839891	5.54570523
Ti	21.85469768	6.31601443	5.54048253
Ti	10.41912261	9.16568615	4.67361876
Ti	25.69164047	9.29102325	4.73847699
Ti	14.15850663	9.26530236	4.75599872
Ti	29.42344447	9.16481147	4.70000523
Ti	17.95758117	9.15327685	4.75416154
Ti	12.46833868	4.10493180	4.65187818
Ti	27.61470387	4.11113327	4.73949627
Ti	16.17633869	3.92363903	4.78397218
Ti	19.97993092	3.99293242	4.92496953
Ti	12.41559395	1.13020611	5.42261835
Ti	27.56297067	1.06354699	5.64042950
Ti	16.16702515	1.05252595	5.51480759
Ti	20.01861735	0.99736745	5.42950149
Ti	10.52994038	6.29115834	5.61830341
Ti	25.69860458	6.29775352	5.53745494
Ti	14.38647452	6.33097793	5.34901909
Ti	29.60963972	6.33347165	5.51407672
Ti	18.09236229	6.24413514	5.47622232
O	21.86263170	7.27997216	3.93039950
O	8.38048621	2.13879865	3.97256715
O	23.83276703	2.09808685	3.94595296
O	8.52744371	9.61323569	4.75226520
O	23.75036787	9.64271711	4.93185762
O	21.91387415	4.42463865	4.80834844
O	21.87531646	0.61985906	5.79698831
O	8.62457553	5.73943616	5.96196582
O	23.69560054	5.85454828	5.96453696
O	8.47138714	2.75672654	6.34013601
O	23.93117295	2.91388224	6.33092993
O	21.93095738	8.05668294	6.44195204
O	10.53370813	7.33720683	3.92090883
O	25.45184945	7.44656452	3.96015736
O	14.43931353	7.40834590	3.91628417
O	29.48613674	7.36499357	3.89068723
O	18.11778443	7.31689163	3.95063900
O	12.30591086	2.10765333	3.83915822
O	27.43920273	2.04925207	3.92739077
O	16.28698560	2.04414106	3.97801578
O	19.94401763	2.20265054	4.00338929
O	12.33005656	9.53391231	4.86719419
O	27.62710434	9.79970020	4.71735537
O	16.06017711	9.74739924	4.79283091
O	19.85922207	9.54061040	4.87965809
O	10.49076195	4.38245105	4.74263124
O	25.69406839	4.43867654	4.73983146
O	14.37050001	4.50239969	4.61248472
O	29.54919476	4.46205739	4.76470134
O	18.07984489	4.37151532	4.85345481
O	10.49172927	0.71623071	5.80822737
O	25.66549167	0.54476481	5.75118395
O	14.26286127	0.50706978	5.69896823
O	29.53064292	0.66643122	5.86333746
O	18.08849647	0.55853470	5.63170086
O	12.44784957	5.89926705	5.58327241
O	27.61551866	5.91676088	5.75356744
O	16.25740305	5.73061073	5.89783158
O	19.93281916	5.94684857	5.91074960
O	12.45317895	2.84202094	6.32831719
O	27.78118477	2.95409502	6.29621190
O	16.11506310	2.68475137	6.48169772
O	19.88703072	2.67790423	6.42217128
O	10.43274091	8.05397323	6.32746085
O	25.87023168	8.06834374	6.34558493
O	14.38984515	8.10841965	6.35996175
O	29.79860837	8.01893725	6.37989197
O	17.88020176	7.99207245	6.44060981
Ti	6.68388567	19.65664590	4.75083600
Ti	6.61265408	30.23108476	4.67120903
Ti	6.54864753	16.72919478	5.46036048
Ti	6.57795470	27.31932040	5.48266301
Ti	2.82848327	19.89319729	4.74287733
Ti	2.90671832	30.20467615	4.76582230
Ti	0.96029106	14.31848736	4.65375907
Ti	0.85265138	24.96848109	4.63278057
Ti	4.52712100	14.49577954	4.74870119
Ti	4.72752740	25.02051474	4.82232927
Ti	0.99625925	11.43480133	5.44407736
Ti	0.88707665	22.09402272	5.55743261
Ti	4.76197137	11.53963273	5.47816330
Ti	4.83100492	22.13566176	5.51866906
Ti	2.75833588	16.95489478	5.65170380
Ti	2.68817700	27.29178160	5.51338587
O	6.59736304	17.85267730	3.90114831
O	6.81142098	28.35511326	3.94067840
O	6.55523676	14.92972745	4.80153642
O	6.56168277	25.49382015	4.82002719
O	6.56265271	11.02161499	5.72928081
O	6.68430020	21.53521717	5.90998244
O	6.50695984	18.53264373	6.31385346
O	6.48196260	29.11383841	6.41122248
O	2.79378908	17.94467923	3.99709547
O	3.05343248	28.37838627	3.86758757
O	0.84382709	12.38761634	3.85297508
O	0.69975305	23.07656701	3.91397673
O	4.77059682	12.60622306	4.00386845
O	4.81562504	23.11998981	3.99710078
O	0.93466779	20.27968962	4.85076569
O	0.93065409	30.66067544	4.89996465
O	4.82218812	20.31245928	4.91373479
O	4.77335801	30.64445696	4.84396297
O	2.72819764	15.12916572	4.64690855
O	2.76757095	25.25885312	4.82829308
O	2.82872447	10.88647307	5.85120099
O	2.84289683	21.76870996	5.71605018
O	0.88373648	16.49129166	6.12515985
O	0.80308334	26.93323557	5.51586497
O	4.72882787	16.30566214	5.72893720
O	4.61406342	26.93113494	5.66679941
O	0.95408560	13.28640145	6.24715728
O	0.62164519	23.90912565	6.36979174
O	4.49975381	13.37209193	6.32120007
O	4.57425651	23.85794694	6.41250261
O	2.97141021	18.72798428	6.34618770
O	2.79903040	28.99477031	6.26631043
Ti	21.87831452	19.67431876	4.74899603
Ti	21.91316058	30.21421086	4.70559816
Ti	8.46878291	14.39272686	4.78328255
Ti	8.39491160	24.97068787	4.69209127
Ti	23.79334771	14.43317878	4.76194287
Ti	23.73057818	24.95960210	4.68528947
Ti	8.49780644	11.48486464	5.44554876
Ti	8.55266383	22.17978306	5.59647351
Ti	23.76528948	11.51819821	5.55008895
Ti	23.66891084	22.00768880	5.48745077
Ti	21.92502236	16.79846109	5.46163924
Ti	21.84296999	27.30476659	5.57229216
Ti	10.34266839	19.75094067	4.69841011
Ti	10.41106591	30.26311263	4.75746361
Ti	25.68973446	19.73785172	4.72099754
Ti	25.69388463	30.14679251	4.79781260
Ti	14.13614057	19.78500073	4.81361519
Ti	14.14900857	30.22074842	4.72117059
Ti	29.49133835	19.73568214	4.82670514
Ti	29.45322251	30.25245750	4.86792832
Ti	17.98480525	19.63241412	4.75288538
Ti	18.11506609	30.16271072	4.82025023
Ti	12.43129865	14.49043436	4.75165478
Ti	12.36475537	25.10490715	4.80851070
Ti	27.59505463	14.48919801	4.83416548
Ti	27.53270039	24.90382984	4.81685443
Ti	16.16673456	14.53650254	4.77079161
Ti	16.14795031	24.98857287	4.92232509
Ti	20.04259086	14.43648861	4.76518759
Ti	19.92428600	24.92944926	4.87914249
Ti	12.28662471	11.57168580	5.46916281
Ti	12.25733972	22.14151766	5.44954420
Ti	27.61877226	11.60952902	5.64641885
Ti	27.57737719	22.00084998	5.51499256
Ti	16.15136262	11.60700713	5.51257697
Ti	16.12390721	22.07531657	5.53040299
Ti	19.88568164	11.47404572	5.50253986
Ti	19.82949310	22.02904518	5.49216382
Ti	10.29203605	16.79026977	5.50569540
Ti	10.46666960	27.38487160	5.52607509
Ti	25.71191021	16.78845984	5.59902523
Ti	25.66687719	27.23250013	5.50538242
Ti	14.24835939	16.83247445	5.61247576
Ti	14.22194996	27.31725215	5.54557982
Ti	29.50185092	16.87224360	5.60717262
Ti	29.37492287	27.29793789	5.38446535
Ti	18.12145994	16.74340209	5.50007296
Ti	18.05891679	27.27053774	5.62836006
O	21.88229832	17.86705641	3.89503545
O	21.86319206	28.25313663	3.96193868
O	8.59586847	12.60824392	3.90932213
O	8.43536854	23.04010945	3.90685503
O	23.78422098	12.53148497	3.93902576
O	23.74634616	23.02017690	3.87964129
O	8.54021430	20.33899641	4.59624264
O	8.54438247	30.68109010	4.73880847
O	23.67880918	20.10852198	4.88242152
O	23.78319228	30.73492936	4.69446729
O	21.97954682	14.95893964	4.57755681
O	21.81396848	25.39395273	4.65922231
O	21.86491726	11.07019939	5.62074805
O	21.66806367	21.55862828	5.72286966
O	8.39100286	16.20546294	5.73089069
O	8.43149179	26.81199944	5.93875972
O	23.79796977	16.24236549	5.69792500
O	23.73127761	26.82837206	5.89562278
O	8.42206974	13.28219757	6.33202719
O	8.36013753	23.96473246	6.33765482
O	23.98328763	13.28379996	6.29189599
O	23.70536532	23.81190346	6.30559410
O	21.95724854	18.50436453	6.31873073
O	21.89521971	29.10574911	6.35366454
O	10.33489601	17.87507319	3.93314313
O	10.52996572	28.43153537	3.98197107
O	25.70121889	17.83317107	3.98371713
O	25.65338749	28.25680812	3.89599463
O	13.97922246	17.94621177	3.98245777
O	14.22076972	28.31354906	3.93420583
O	29.57505852	17.79741763	3.93665945
O	29.16016064	28.41294622	3.93107221
O	18.17078808	17.80667050	3.95926524
O	18.10253155	28.32030893	3.99923501
O	12.35191530	12.71544520	3.90616514
O	12.24462338	23.26685454	3.95850489
O	27.61615816	12.72098573	3.98934228
O	27.65415569	22.96982339	3.96972433
O	16.19788693	12.61424815	3.95611701
O	16.03518841	23.17924771	3.99193558
O	20.09624829	12.62994425	3.98520044
O	20.02075708	23.04908270	3.92364154
O	12.29180347	20.17625197	4.95649024
O	12.30418608	30.66844274	4.87607491
O	27.63883099	20.16258004	4.78118702
O	27.59706574	30.67560137	4.92490129
O	16.11545276	20.20386859	4.77676649
O	16.12662441	30.53259866	4.79990633
O	19.92202531	20.03315892	4.79230942
O	19.95771385	30.61508584	4.69564456
O	10.41756309	14.84826365	4.62855311
O	10.34951407	25.57387373	4.66024162
O	25.68314595	14.98488260	4.77436658
O	25.60482230	25.40717747	4.74713647
O	14.29035913	14.95336536	4.75725239
O	14.24771130	25.33537201	4.90635413
O	29.53757520	14.95738715	4.97320051
O	29.45245219	25.43100639	4.63011362
O	18.06318546	14.87207677	4.66517073
O	18.06430882	25.35982185	4.78123691
O	10.40473006	11.01276810	5.56857774
O	10.47395672	21.76773936	5.95773032
O	25.62188871	10.97626428	5.81529118
O	25.64582348	21.61273827	5.45505058
O	14.21367968	11.29527457	5.53018974
O	14.23697158	21.74362402	5.73409185
O	29.51628803	11.13089832	5.66797302
O	29.50905687	21.53327187	5.80379843
O	18.04835365	11.12267576	5.82262360
O	17.96713702	21.44768635	5.75050725
O	12.18323215	16.43568327	5.59822446
O	12.33648437	26.82709689	5.73683053
O	27.57917621	16.24469442	5.80830083
O	27.53648376	26.65605348	5.86764719
O	16.09950929	16.38601678	5.58291218
O	16.04450572	26.84416593	5.85490441
O	19.99817187	16.14479774	5.96135046
O	19.89896956	26.76286844	5.84162871
O	12.04632333	13.28225065	6.30613369
O	12.36752629	23.89438995	6.47272795
O	27.20694509	13.35213437	6.34991795
O	27.72307020	23.72139232	6.30857341
O	15.99133955	13.49372658	6.35782287
O	16.29830763	23.73695745	6.43341100
O	19.98660390	13.22568109	6.37551838
O	19.91053941	23.71379156	6.44474553
O	10.35976891	18.53213820	6.31252703
O	10.44905620	29.21731045	6.31321283
O	25.66504166	18.68893568	6.42431182
O	25.66830649	29.07620556	6.39150113
O	14.49930945	18.70383018	6.21771373
O	14.09251091	29.06953454	6.31594741
O	29.47772028	18.63430061	6.38439502
O	29.43685762	28.94290409	6.35774871
O	18.04702467	18.53971014	6.38039228
O	18.15650025	29.05420425	6.47215393
H	14.05401493	13.99771064	7.69313171
H	13.49761576	14.80530301	11.22590538
H	15.13204285	18.09732474	8.94184604
O	14.30636449	16.33288128	7.52694526
O	13.94862592	14.36555226	8.61189007
C	14.23559682	15.65933969	8.65263149
C	14.33978248	16.34372957	9.91612140
C	13.95175751	15.81991446	11.24532186
C	14.90496004	17.65698122	9.92445716
N	13.21294547	19.28617357	15.59489543
N	15.73889992	22.29843696	17.02258693
N	15.90567715	20.25381180	14.89450521
N	13.01450125	21.29944577	17.80849181
C	21.58487137	22.01211740	15.65099732
C	14.55047217	24.15926844	22.49451472
C	7.46599386	19.39164790	17.11549474
C	19.12729508	22.12446489	15.57915973
C	14.16621525	23.95574530	20.07339460
C	9.83443431	19.20947651	17.32984425
C	20.41868265	23.71808012	14.29339918
C	14.01175043	26.16239852	21.15801042
C	8.42344620	17.35974547	17.96202463
C	14.46437328	18.76013807	13.53524672
C	17.73233364	21.66888968	15.86317436
C	14.27653590	23.08152794	18.89231614
C	11.24753059	19.69882530	17.12840573
C	15.70575447	19.36526541	13.90252509
C	17.23478986	20.64107900	14.96902516
C	13.15037553	22.26540329	18.72924052
C	11.77512746	20.70255802	17.94120283
C	16.95507622	19.29536565	13.14864779
C	17.88751852	20.05095117	13.84968822
C	11.97661490	22.22165741	19.58115501
C	11.09654801	21.32653967	19.04840786
C	13.32966772	18.73017985	14.29500867
C	17.08155521	22.47435726	16.82622222
C	15.44763957	23.12401717	18.12369617
C	11.88578044	19.14586318	16.00670233
C	12.01729544	18.28864762	13.89941244
C	17.61847079	23.49039093	17.70449266
C	16.62836280	23.83940796	18.57604701
C	11.15231121	18.48945701	14.97139897
H	11.76231536	17.95929829	12.90870643
H	18.66742524	23.81863303	17.72265098
H	16.72569620	24.46392312	19.49169181
H	10.09585191	18.45243856	14.94264771
H	17.21522988	18.64503642	12.28416154
H	18.96260624	20.13760957	13.66920772
H	11.69620488	22.98042345	20.29756401
H	10.12697003	21.03394772	19.44454905
H	20.51920568	24.70762023	13.82944865
H	13.79096585	27.28541052	21.15506592
H	8.29489048	16.27122001	18.21607619
H	22.47035729	21.44353007	15.96394067
H	14.77359226	23.68216226	23.52556883
H	6.58412090	20.00792334	16.91912440
H	15.16135490	20.50558494	15.55044744
H	13.74998668	20.98031078	17.16917680
C	22.95661515	23.43590851	14.12019562
H	23.63360520	22.54464364	14.07181387
H	23.44908037	24.12508300	14.82593832
H	22.78860024	23.88234299	13.12897427
C	20.24270360	20.56648504	17.25685402
H	21.10048880	19.93485531	17.25985949
H	19.32223357	19.93289345	17.09249658
H	20.08516564	21.08705049	18.21723818
C	18.02508649	23.95898715	14.10872979
H	17.68394834	23.34699679	13.25105713
H	18.30521108	24.92338099	13.75159115
H	17.14023221	23.99051649	14.71872163
C	10.97040503	17.28097769	18.39253188
H	11.34626493	17.73946071	19.35660619
H	11.78596707	17.28751125	17.72281258
H	10.81038729	16.19775789	18.68050424
C	8.94160643	21.36439835	16.53937502
H	9.30740628	21.30190415	15.51656561
H	9.59306756	21.93459408	17.23593446
H	7.97284479	21.85608306	16.45993178
C	5.92951763	17.58550682	17.64841889
H	5.44664385	17.42690994	16.64823667
H	5.30568537	18.30974989	18.19302028
H	5.87282701	16.56867453	18.19551897
C	13.49963120	25.83916007	18.63136199
H	13.46381228	25.03561492	17.91060241
H	14.09651544	26.68454297	18.24198803
H	12.45290430	26.35718922	18.56334562
C	14.45018589	21.93996683	21.45184058
H	14.98171770	21.45551760	20.63069044
H	13.43829134	21.51111962	21.36880029
H	14.84244620	21.60065674	22.36392600
C	14.29570651	26.32392062	23.70374860
H	13.57340332	25.90375828	24.40706116
H	14.01251751	27.34442170	23.45739477
H	15.28244166	26.40658628	24.14060987
C	21.63028469	23.04135185	14.73093699
C	20.31611286	21.58168996	16.12643033
C	19.19671439	23.23515504	14.68198943
C	13.90735350	25.35985195	19.98896746
C	14.35470624	23.38948886	21.34961437
C	14.31662090	25.56032448	22.41793111
C	9.72155484	17.93786293	17.91105831
C	8.70257235	19.96202043	16.99729924
C	7.36282615	18.05869686	17.52437126
H	13.69551545	16.00207729	13.30649668
H	15.16326236	19.44454717	10.89900223
C	14.51196396	17.88525463	12.33708430
C	14.07333218	16.53441623	12.42977315
C	14.79470096	18.43399083	11.06290556

Ti O H C N 0
6-31G*
****

