%chk=f00012852.chk
%mem=24GB
%nproc=12
#p b3lyp/6-31G*

title

0 1
Ti	2.81187400	0.19704000	1.10336000
Ti	0.90594400	5.44057000	1.10336000
Ti	4.71781400	5.44057000	1.10336000
Ti	0.90594400	2.47241000	1.99114000
Ti	4.71781400	2.47241000	1.99114000
Ti	2.81187400	7.71594000	1.99115000
O	2.81187400	8.81302000	0.37332000
O	0.90594400	3.56949000	0.37332000
O	4.71781400	3.56949000	0.37332000
O	0.90594400	0.60134000	1.26110000
O	4.71781400	0.60134000	1.26110000
O	2.81187400	5.84486000	1.26111000
O	2.81187400	2.06812000	1.83340000
O	0.90594400	7.31164000	1.83340000
O	4.71781400	7.31164000	1.83340000
O	0.90594400	4.34349000	2.72118000
O	4.71781400	4.34349000	2.72118000
O	2.81187400	9.58701000	2.72118000
Ti	6.62374588	0.19704000	1.10336000
Ti	21.87123776	0.19704000	1.10336000
Ti	8.52968588	5.44057000	1.10336000
Ti	23.77717776	5.44057000	1.10336000
Ti	8.52968588	2.47241000	1.99114000
Ti	23.77717776	2.47241000	1.99114000
Ti	6.62374588	7.71594000	1.99115000
Ti	21.87123776	7.71594000	1.99115000
Ti	10.43561588	0.19704000	1.10336000
Ti	25.68310776	0.19704000	1.10336000
Ti	14.24749588	0.19704000	1.10336000
Ti	29.49498776	0.19704000	1.10336000
Ti	18.05936588	0.19704000	1.10336000
Ti	12.34155588	5.44057000	1.10336000
Ti	27.58904776	5.44057000	1.10336000
Ti	16.15343588	5.44057000	1.10336000
Ti	19.96530588	5.44057000	1.10336000
Ti	12.34155588	2.47241000	1.99114000
Ti	27.58904776	2.47241000	1.99114000
Ti	16.15343588	2.47241000	1.99114000
Ti	19.96530588	2.47241000	1.99114000
Ti	10.43561588	7.71594000	1.99115000
Ti	25.68310776	7.71594000	1.99115000
Ti	14.24749588	7.71594000	1.99115000
Ti	29.49498776	7.71594000	1.99115000
Ti	18.05936588	7.71594000	1.99115000
O	6.62374588	8.81302000	0.37332000
O	21.87123776	8.81302000	0.37332000
O	8.52968588	3.56949000	0.37332000
O	23.77717776	3.56949000	0.37332000
O	8.52968588	0.60134000	1.26110000
O	23.77717776	0.60134000	1.26110000
O	6.62374588	5.84486000	1.26111000
O	21.87123776	5.84486000	1.26111000
O	6.62374588	2.06812000	1.83340000
O	21.87123776	2.06812000	1.83340000
O	8.52968588	7.31164000	1.83340000
O	23.77717776	7.31164000	1.83340000
O	8.52968588	4.34349000	2.72118000
O	23.77717776	4.34349000	2.72118000
O	6.62374588	9.58701000	2.72118000
O	21.87123776	9.58701000	2.72118000
O	10.43561588	8.81302000	0.37332000
O	25.68310776	8.81302000	0.37332000
O	14.24749588	8.81302000	0.37332000
O	29.49498776	8.81302000	0.37332000
O	18.05936588	8.81302000	0.37332000
O	12.34155588	3.56949000	0.37332000
O	27.58904776	3.56949000	0.37332000
O	16.15343588	3.56949000	0.37332000
O	19.96530588	3.56949000	0.37332000
O	12.34155588	0.60134000	1.26110000
O	27.58904776	0.60134000	1.26110000
O	16.15343588	0.60134000	1.26110000
O	19.96530588	0.60134000	1.26110000
O	10.43561588	5.84486000	1.26111000
O	25.68310776	5.84486000	1.26111000
O	14.24749588	5.84486000	1.26111000
O	29.49498776	5.84486000	1.26111000
O	18.05936588	5.84486000	1.26111000
O	10.43561588	2.06812000	1.83340000
O	25.68310776	2.06812000	1.83340000
O	14.24749588	2.06812000	1.83340000
O	29.49498776	2.06812000	1.83340000
O	18.05936588	2.06812000	1.83340000
O	12.34155588	7.31164000	1.83340000
O	27.58904776	7.31164000	1.83340000
O	16.15343588	7.31164000	1.83340000
O	19.96530588	7.31164000	1.83340000
O	12.34155588	4.34349000	2.72118000
O	27.58904776	4.34349000	2.72118000
O	16.15343588	4.34349000	2.72118000
O	19.96530588	4.34349000	2.72118000
O	10.43561588	9.58701000	2.72118000
O	25.68310776	9.58701000	2.72118000
O	14.24749588	9.58701000	2.72118000
O	29.49498776	9.58701000	2.72118000
O	18.05936588	9.58701000	2.72118000
Ti	2.81187400	10.68408607	1.10336000
Ti	2.81187400	21.17113214	1.10336000
Ti	0.90594400	15.92761607	1.10336000
Ti	0.90594400	26.41466214	1.10336000
Ti	4.71781400	15.92761607	1.10336000
Ti	4.71781400	26.41466214	1.10336000
Ti	0.90594400	12.95945607	1.99114000
Ti	0.90594400	23.44650214	1.99114000
Ti	4.71781400	12.95945607	1.99114000
Ti	4.71781400	23.44650214	1.99114000
Ti	2.81187400	18.20298607	1.99115000
Ti	2.81187400	28.69003214	1.99115000
O	2.81187400	19.30006607	0.37332000
O	2.81187400	29.78711214	0.37332000
O	0.90594400	14.05653607	0.37332000
O	0.90594400	24.54358214	0.37332000
O	4.71781400	14.05653607	0.37332000
O	4.71781400	24.54358214	0.37332000
O	0.90594400	11.08838607	1.26110000
O	0.90594400	21.57543214	1.26110000
O	4.71781400	11.08838607	1.26110000
O	4.71781400	21.57543214	1.26110000
O	2.81187400	16.33190607	1.26111000
O	2.81187400	26.81895214	1.26111000
O	2.81187400	12.55516607	1.83340000
O	2.81187400	23.04221214	1.83340000
O	0.90594400	17.79868607	1.83340000
O	0.90594400	28.28573214	1.83340000
O	4.71781400	17.79868607	1.83340000
O	4.71781400	28.28573214	1.83340000
O	0.90594400	14.83053607	2.72118000
O	0.90594400	25.31758214	2.72118000
O	4.71781400	14.83053607	2.72118000
O	4.71781400	25.31758214	2.72118000
O	2.81187400	20.07405607	2.72118000
O	2.81187400	30.56110214	2.72118000
Ti	6.62374588	10.68408607	1.10336000
Ti	6.62374588	21.17113214	1.10336000
Ti	21.87123776	10.68408607	1.10336000
Ti	21.87123776	21.17113214	1.10336000
Ti	8.52968588	15.92761607	1.10336000
Ti	8.52968588	26.41466214	1.10336000
Ti	23.77717776	15.92761607	1.10336000
Ti	23.77717776	26.41466214	1.10336000
Ti	8.52968588	12.95945607	1.99114000
Ti	8.52968588	23.44650214	1.99114000
Ti	23.77717776	12.95945607	1.99114000
Ti	23.77717776	23.44650214	1.99114000
Ti	6.62374588	18.20298607	1.99115000
Ti	6.62374588	28.69003214	1.99115000
Ti	21.87123776	18.20298607	1.99115000
Ti	21.87123776	28.69003214	1.99115000
Ti	10.43561588	10.68408607	1.10336000
Ti	10.43561588	21.17113214	1.10336000
Ti	25.68310776	10.68408607	1.10336000
Ti	25.68310776	21.17113214	1.10336000
Ti	14.24749588	10.68408607	1.10336000
Ti	14.24749588	21.17113214	1.10336000
Ti	29.49498776	10.68408607	1.10336000
Ti	29.49498776	21.17113214	1.10336000
Ti	18.05936588	10.68408607	1.10336000
Ti	18.05936588	21.17113214	1.10336000
Ti	12.34155588	15.92761607	1.10336000
Ti	12.34155588	26.41466214	1.10336000
Ti	27.58904776	15.92761607	1.10336000
Ti	27.58904776	26.41466214	1.10336000
Ti	16.15343588	15.92761607	1.10336000
Ti	16.15343588	26.41466214	1.10336000
Ti	19.96530588	15.92761607	1.10336000
Ti	19.96530588	26.41466214	1.10336000
Ti	12.34155588	12.95945607	1.99114000
Ti	12.34155588	23.44650214	1.99114000
Ti	27.58904776	12.95945607	1.99114000
Ti	27.58904776	23.44650214	1.99114000
Ti	16.15343588	12.95945607	1.99114000
Ti	16.15343588	23.44650214	1.99114000
Ti	19.96530588	12.95945607	1.99114000
Ti	19.96530588	23.44650214	1.99114000
Ti	10.43561588	18.20298607	1.99115000
Ti	10.43561588	28.69003214	1.99115000
Ti	25.68310776	18.20298607	1.99115000
Ti	25.68310776	28.69003214	1.99115000
Ti	14.24749588	18.20298607	1.99115000
Ti	14.24749588	28.69003214	1.99115000
Ti	29.49498776	18.20298607	1.99115000
Ti	29.49498776	28.69003214	1.99115000
Ti	18.05936588	18.20298607	1.99115000
Ti	18.05936588	28.69003214	1.99115000
O	6.62374588	19.30006607	0.37332000
O	6.62374588	29.78711214	0.37332000
O	21.87123776	19.30006607	0.37332000
O	21.87123776	29.78711214	0.37332000
O	8.52968588	14.05653607	0.37332000
O	8.52968588	24.54358214	0.37332000
O	23.77717776	14.05653607	0.37332000
O	23.77717776	24.54358214	0.37332000
O	8.52968588	11.08838607	1.26110000
O	8.52968588	21.57543214	1.26110000
O	23.77717776	11.08838607	1.26110000
O	23.77717776	21.57543214	1.26110000
O	6.62374588	16.33190607	1.26111000
O	6.62374588	26.81895214	1.26111000
O	21.87123776	16.33190607	1.26111000
O	21.87123776	26.81895214	1.26111000
O	6.62374588	12.55516607	1.83340000
O	6.62374588	23.04221214	1.83340000
O	21.87123776	12.55516607	1.83340000
O	21.87123776	23.04221214	1.83340000
O	8.52968588	17.79868607	1.83340000
O	8.52968588	28.28573214	1.83340000
O	23.77717776	17.79868607	1.83340000
O	23.77717776	28.28573214	1.83340000
O	8.52968588	14.83053607	2.72118000
O	8.52968588	25.31758214	2.72118000
O	23.77717776	14.83053607	2.72118000
O	23.77717776	25.31758214	2.72118000
O	6.62374588	20.07405607	2.72118000
O	6.62374588	30.56110214	2.72118000
O	21.87123776	20.07405607	2.72118000
O	21.87123776	30.56110214	2.72118000
O	10.43561588	19.30006607	0.37332000
O	10.43561588	29.78711214	0.37332000
O	25.68310776	19.30006607	0.37332000
O	25.68310776	29.78711214	0.37332000
O	14.24749588	19.30006607	0.37332000
O	14.24749588	29.78711214	0.37332000
O	29.49498776	19.30006607	0.37332000
O	29.49498776	29.78711214	0.37332000
O	18.05936588	19.30006607	0.37332000
O	18.05936588	29.78711214	0.37332000
O	12.34155588	14.05653607	0.37332000
O	12.34155588	24.54358214	0.37332000
O	27.58904776	14.05653607	0.37332000
O	27.58904776	24.54358214	0.37332000
O	16.15343588	14.05653607	0.37332000
O	16.15343588	24.54358214	0.37332000
O	19.96530588	14.05653607	0.37332000
O	19.96530588	24.54358214	0.37332000
O	12.34155588	11.08838607	1.26110000
O	12.34155588	21.57543214	1.26110000
O	27.58904776	11.08838607	1.26110000
O	27.58904776	21.57543214	1.26110000
O	16.15343588	11.08838607	1.26110000
O	16.15343588	21.57543214	1.26110000
O	19.96530588	11.08838607	1.26110000
O	19.96530588	21.57543214	1.26110000
O	10.43561588	16.33190607	1.26111000
O	10.43561588	26.81895214	1.26111000
O	25.68310776	16.33190607	1.26111000
O	25.68310776	26.81895214	1.26111000
O	14.24749588	16.33190607	1.26111000
O	14.24749588	26.81895214	1.26111000
O	29.49498776	16.33190607	1.26111000
O	29.49498776	26.81895214	1.26111000
O	18.05936588	16.33190607	1.26111000
O	18.05936588	26.81895214	1.26111000
O	10.43561588	12.55516607	1.83340000
O	10.43561588	23.04221214	1.83340000
O	25.68310776	12.55516607	1.83340000
O	25.68310776	23.04221214	1.83340000
O	14.24749588	12.55516607	1.83340000
O	14.24749588	23.04221214	1.83340000
O	29.49498776	12.55516607	1.83340000
O	29.49498776	23.04221214	1.83340000
O	18.05936588	12.55516607	1.83340000
O	18.05936588	23.04221214	1.83340000
O	12.34155588	17.79868607	1.83340000
O	12.34155588	28.28573214	1.83340000
O	27.58904776	17.79868607	1.83340000
O	27.58904776	28.28573214	1.83340000
O	16.15343588	17.79868607	1.83340000
O	16.15343588	28.28573214	1.83340000
O	19.96530588	17.79868607	1.83340000
O	19.96530588	28.28573214	1.83340000
O	12.34155588	14.83053607	2.72118000
O	12.34155588	25.31758214	2.72118000
O	27.58904776	14.83053607	2.72118000
O	27.58904776	25.31758214	2.72118000
O	16.15343588	14.83053607	2.72118000
O	16.15343588	25.31758214	2.72118000
O	19.96530588	14.83053607	2.72118000
O	19.96530588	25.31758214	2.72118000
O	10.43561588	20.07405607	2.72118000
O	10.43561588	30.56110214	2.72118000
O	25.68310776	20.07405607	2.72118000
O	25.68310776	30.56110214	2.72118000
O	14.24749588	20.07405607	2.72118000
O	14.24749588	30.56110214	2.72118000
O	29.49498776	20.07405607	2.72118000
O	29.49498776	30.56110214	2.72118000
O	18.05936588	20.07405607	2.72118000
O	18.05936588	30.56110214	2.72118000
Ti	6.65644378	9.21035598	4.56265062
Ti	6.69951932	6.25053671	5.39460075
Ti	2.86695290	9.19671502	4.67544566
Ti	0.99798552	4.00417606	4.66272085
Ti	4.78528719	4.00067833	4.86889169
Ti	0.92280964	1.12987592	5.47143308
Ti	4.70018155	0.99923853	5.49250026
Ti	2.81726564	6.29568408	5.51129285
O	6.61783950	7.32695800	3.86106455
O	6.69646277	4.47352669	4.72251982
O	6.60594570	0.43680158	5.81553299
O	6.44826367	8.00421520	6.27489417
O	2.96304400	7.26340203	3.96255294
O	0.71793407	2.11480991	3.93586330
O	4.78846924	2.14069212	4.01402098
O	0.98449086	9.53211715	4.78015258
O	4.72755776	9.62797249	4.80054285
O	2.95058683	4.44313498	4.71860397
O	2.81106260	0.60884763	5.92324697
O	0.91352052	5.90475139	5.87057989
O	4.68409495	5.81106140	5.77281280
O	0.96102409	2.91364475	6.30650592
O	4.80737774	2.84025957	6.43522895
O	2.62728193	8.09941381	6.37662041
Ti	21.90277925	9.16375123	4.69752000
Ti	8.60631763	3.92320317	4.66600518
Ti	23.82391107	3.90736831	4.69806879
Ti	8.51915767	1.05882225	5.48937648
Ti	23.73824015	1.03686700	5.43436038
Ti	21.89111697	6.23443229	5.44108425
Ti	10.49571434	9.20693070	4.69074454
Ti	25.68913826	9.22036512	4.67088807
Ti	14.27652364	9.26598043	4.78459566
Ti	29.57632189	9.25163949	4.64820283
Ti	18.05347729	9.20248219	4.80955137
Ti	12.42915125	3.94757108	4.74997086
Ti	27.66273956	3.96745954	4.72989132
Ti	16.22127987	3.91600677	4.86035395
Ti	20.07788226	3.96019023	4.70137442
Ti	12.35073996	1.04186297	5.59582952
Ti	27.60838680	1.09855388	5.53998022
Ti	16.19345002	0.97770142	5.48135974
Ti	19.84942361	1.01404234	5.65666238
Ti	10.64674377	6.33773575	5.43906631
Ti	25.75966309	6.27154721	5.33680882
Ti	14.36400637	6.27508201	5.48504244
Ti	29.50147644	6.36445705	5.42589936
Ti	18.18850270	6.36195525	5.51365438
O	21.95196682	7.28494273	3.97694426
O	8.20688824	2.18255930	3.96021331
O	23.77692796	2.03320033	3.87190076
O	8.62573677	9.65768564	4.86263533
O	23.75184993	9.56608516	4.93483487
O	21.94199605	4.30600108	5.08654398
O	21.85205427	0.59476833	5.64050405
O	8.62294290	5.90503036	5.60223136
O	23.80594088	5.80377587	5.70677728
O	8.31553497	2.85970397	6.34501434
O	23.77893531	2.59312178	6.53021259
O	21.69465270	7.96252146	6.29999651
O	10.50430272	7.40859464	3.86469369
O	25.74237469	7.35079773	3.87426084
O	14.45968541	7.34339458	3.90783588
O	29.64710617	7.34035869	3.85569321
O	18.16092281	7.39767607	4.02727366
O	12.26938542	2.04659695	3.98808888
O	27.72603563	2.08889116	3.90851364
O	16.20947956	2.10319897	3.97163259
O	19.95360703	2.10502029	3.96933848
O	12.38562989	9.76548107	4.70179973
O	27.63738587	9.57615646	4.91448145
O	16.14623909	9.72303351	4.69380478
O	19.94094195	9.63860960	4.70836685
O	10.47966078	4.43324931	4.75795760
O	25.72527578	4.49967721	4.59731167
O	14.32242301	4.36436995	4.86330239
O	29.59495069	4.51499240	4.85089763
O	18.14696612	4.35895075	4.88488347
O	10.42922950	0.62605051	5.83803914
O	25.68960676	0.54993092	5.66010736
O	14.31053229	0.58355731	5.87423412
O	29.50603985	0.72157573	5.68710253
O	18.08293217	0.33314388	6.02985847
O	12.46675227	5.81155395	5.67801711
O	27.64449583	5.75493604	5.73248945
O	16.27555226	5.74844721	5.88075703
O	20.03705630	5.87689076	5.56900090
O	12.51126168	2.80378976	6.38450646
O	27.27742881	2.81755083	6.35399049
O	16.33446985	2.72233168	6.47263421
O	20.01338398	2.80174822	6.46462386
O	10.63235748	7.89997423	6.37375176
O	25.76700128	7.98418003	6.39009470
O	14.13742220	8.02395254	6.28272300
O	29.61004173	8.12228972	6.33540073
O	17.80621340	8.07559608	6.37100548
Ti	6.52837041	19.65587226	4.86826054
Ti	6.70587650	30.15242646	4.83763229
Ti	6.57647421	16.74623333	5.55825536
Ti	6.66695874	27.20538898	5.43988090
Ti	2.71443569	19.81294963	4.71817167
Ti	2.75846865	30.18600493	4.82875733
Ti	0.95278197	14.55067349	4.81897153
Ti	0.88262479	25.04486339	4.70180048
Ti	4.70541072	14.44864814	4.80766782
Ti	4.74500129	24.97895353	4.69840269
Ti	0.94607770	11.63685469	5.47995835
Ti	0.75982120	22.19313545	5.57963744
Ti	4.58327532	11.51844927	5.40422930
Ti	4.82233764	22.11487935	5.66403541
Ti	2.78356365	16.84875893	5.58671811
Ti	2.81258444	27.25100450	5.52322461
O	6.46687982	17.81514448	3.95167942
O	6.66397101	28.29628028	3.87940097
O	6.51850624	14.94484895	4.83495245
O	6.65375980	25.31190513	4.74695709
O	6.60882506	11.05461440	5.71075753
O	6.65291033	21.50611228	5.83414785
O	6.66279963	18.45800810	6.38303927
O	6.44669216	28.92834368	6.31144832
O	2.81783874	17.94656199	4.05543594
O	2.79630476	28.36427492	3.99767197
O	1.10442045	12.50727630	3.91065418
O	0.82412097	23.17338396	3.93689573
O	4.52140032	12.66168065	3.90309971
O	4.79665310	23.15829088	3.93729099
O	0.83071846	20.27475293	4.82665284
O	0.95868417	30.77487758	4.66909060
O	4.64783570	20.20237000	5.05544989
O	4.71695509	30.63635592	4.80149059
O	2.77128658	14.97325714	4.93584539
O	2.80859593	25.42707051	4.69432407
O	2.77455644	10.98089779	5.70311168
O	2.77947889	21.70215563	5.60843202
O	0.88214926	16.31910574	5.79194500
O	0.99319598	26.73027781	5.76449356
O	4.59458552	16.24285734	5.93290457
O	4.70910387	26.76231067	5.79891135
O	0.80132794	13.33950470	6.29789777
O	0.81355575	23.93366660	6.38094630
O	4.78451638	13.20899610	6.36647728
O	4.81320208	23.94066998	6.40281404
O	2.63093640	18.58514528	6.46208267
O	2.76540051	29.01595473	6.44322926
Ti	21.78047161	19.69453685	4.82865683
Ti	21.90332222	30.16953208	4.70359610
Ti	8.48742372	14.45710497	4.86034594
Ti	8.51597807	24.89552384	4.82773799
Ti	23.71035453	14.39034210	4.79242673
Ti	23.84767530	24.92592526	4.68558541
Ti	8.53505833	11.56292043	5.59187338
Ti	8.57129952	21.97904181	5.47091766
Ti	23.69307058	11.45625784	5.50338467
Ti	23.70997480	21.99700460	5.48921061
Ti	21.65419349	16.76602738	5.49567424
Ti	21.94657439	27.26809090	5.45386435
Ti	10.44565339	19.68552749	4.81507327
Ti	10.43505078	30.17774235	4.80386623
Ti	25.59060078	19.65011634	4.79910944
Ti	25.73761971	30.16823933	4.69334496
Ti	14.26022256	19.69780010	4.68227730
Ti	14.19902066	30.01696279	4.68044725
Ti	29.48680717	19.75355418	4.74781515
Ti	29.57232435	30.29647719	4.83102483
Ti	17.98499502	19.75130783	4.76048704
Ti	18.12939264	30.18245978	4.85220718
Ti	12.35800251	14.55761809	4.76400653
Ti	12.34008235	24.94355832	4.72727338
Ti	27.58030511	14.47602159	4.79669158
Ti	27.58484099	25.00092625	4.87686487
Ti	16.08744582	14.43412080	4.70643472
Ti	16.16514565	24.94616409	4.80670450
Ti	19.97746436	14.41652559	4.95163354
Ti	19.89137725	24.90573371	4.82375632
Ti	12.26901207	11.59343600	5.49738458
Ti	12.39277991	21.92237099	5.48430649
Ti	27.68060881	11.54320618	5.36852014
Ti	27.52664872	22.06611050	5.45115371
Ti	16.10081393	11.51357945	5.50696654
Ti	16.18701301	22.04127002	5.48519009
Ti	19.96904460	11.56303230	5.49896539
Ti	19.86574517	22.03062692	5.64243426
Ti	10.41543053	16.79210735	5.53205250
Ti	10.43032212	27.18434002	5.59120816
Ti	25.47198744	16.69947323	5.63667208
Ti	25.70340378	27.25445723	5.53659584
Ti	14.31017940	16.72041324	5.79355810
Ti	14.24514910	27.16233307	5.50681581
Ti	29.50412375	16.82187874	5.44163654
Ti	29.48608111	27.41745578	5.53327407
Ti	17.96559215	16.80180819	5.43171346
Ti	18.07366903	27.24006751	5.39271039
O	21.82277738	17.77707269	3.89774763
O	22.03424363	28.34443805	3.97621500
O	8.54513517	12.66920253	3.97275948
O	8.67584321	22.98061895	3.95498307
O	23.77934218	12.62235415	3.98976574
O	23.70374771	23.03236558	3.88152886
O	8.46472229	20.17715198	4.80532464
O	8.59601570	30.52489367	5.05044400
O	23.75307498	20.06664807	4.89099461
O	23.82437392	30.47975318	4.76382901
O	21.85037564	14.91416952	4.81637459
O	21.86829490	25.28576917	4.78955866
O	21.75529466	10.98773109	5.70062902
O	21.77355292	21.53610595	5.88059337
O	8.41661684	16.34370906	5.73097311
O	8.52840745	26.89526150	5.72785257
O	23.54720264	16.24786293	5.74826015
O	23.84510305	26.67170306	5.77590014
O	8.54852252	13.26962522	6.41713859
O	8.76108027	23.81957385	6.39632091
O	23.62663101	13.14938189	6.36725033
O	23.66505944	23.79066688	6.25947100
O	21.62039347	18.56940822	6.26072335
O	21.82553427	29.10961745	6.29886853
O	10.49556488	17.82309828	3.93488633
O	10.38607291	28.25372609	3.96768511
O	25.34365413	17.84032020	3.99739336
O	25.65989037	28.32878484	3.93430742
O	14.37966335	17.79559658	4.00813425
O	14.23916754	28.12497076	3.86739113
O	29.56772626	17.87279775	3.97559573
O	29.52278753	28.43355610	3.97193866
O	18.13759686	17.90934501	3.90401125
O	18.07869600	28.29376754	3.89602182
O	12.36982093	12.62854204	3.89883863
O	12.34098398	23.06255385	3.89381383
O	27.73334196	12.58825762	3.87139411
O	27.63604442	23.04891757	3.90487378
O	16.03434791	12.56410736	3.95991794
O	16.25921205	23.02499042	3.94032355
O	19.86322935	12.59042822	3.93800496
O	19.89562512	22.99848766	4.02494040
O	12.36096287	20.09319327	4.68243325
O	12.34325388	30.65756279	4.76354826
O	27.54492059	20.10059376	4.82195541
O	27.70259530	30.51646612	5.06858196
O	16.15879067	20.27017895	4.56064272
O	16.09669688	30.56543294	4.70117953
O	19.90948365	20.25396815	4.70014007
O	19.97801037	30.60421871	4.75482665
O	10.41060031	14.89240468	4.93914262
O	10.37659494	25.32082262	4.84960224
O	25.64594884	14.89570992	5.04609935
O	25.72266373	25.36523904	4.93266563
O	14.20899046	14.98762294	4.79071271
O	14.24010779	25.21302174	4.75277592
O	29.48820011	14.91997044	4.92216885
O	29.48307481	25.52565247	4.91687208
O	17.99921714	14.83621023	4.80393262
O	18.02688136	25.29417403	4.73432156
O	10.43854829	11.00322233	5.80276227
O	10.44058014	21.47176177	5.96596091
O	25.72383717	11.12964156	5.57327324
O	25.63610439	21.54899310	5.70465244
O	14.24806402	11.02254513	5.97842982
O	14.24784200	21.49820953	5.76733444
O	29.53653053	11.11638082	5.60888554
O	29.32847035	21.63811975	5.91680986
O	17.96341499	11.00501499	5.82846851
O	17.94600852	21.49357302	5.88483923
O	12.33903157	16.38956536	5.71453634
O	12.35370081	26.61679491	5.81448025
O	27.59389245	16.38823603	5.82065288
O	27.61556879	26.92895714	5.50338370
O	16.17616671	16.23376817	5.83642531
O	16.12857571	26.87434237	5.59218950
O	19.75895630	16.29656388	5.79329104
O	20.00166225	26.78361616	5.54965434
O	12.34912243	13.30207218	6.39045987
O	12.25383371	23.76666044	6.27994479
O	27.60832214	13.20041101	6.36478077
O	27.67693322	23.92414589	6.46782420
O	16.33274391	13.26534860	6.34597243
O	16.26443657	23.78298799	6.33109574
O	19.91848568	13.16971404	6.39498699
O	19.88756285	23.76924922	6.43025259
O	10.33686218	18.58320832	6.44699572
O	10.42847223	29.04683600	6.36811362
O	25.51942704	18.45639230	6.37999232
O	25.59702406	28.95406640	6.39001320
O	14.32262250	18.70762606	6.33840876
O	14.26437076	28.92263731	6.27593940
O	29.67334216	18.50383464	6.33314979
O	29.93164542	29.07931697	6.42263808
O	17.89835757	18.55075949	6.22240564
O	18.14642884	28.96311185	6.34629933
H	14.41490578	14.22290886	7.96521313
H	15.54177786	15.02301615	11.52476537
H	14.92859353	18.51999266	8.90868858
O	14.20837098	16.43780904	7.75235216
O	14.75321675	14.51683777	8.82854033
C	14.62752949	15.80486379	8.83413143
C	14.96951554	16.64791669	9.99086812
C	15.33529638	16.07628564	11.25474255
C	14.94712869	18.04375544	9.88993325
N	13.64761031	19.38693496	15.38874087
N	15.26337069	22.73077780	17.08980645
N	15.77857231	21.24282576	14.60865320
N	12.92522605	21.08392830	17.87605646
C	20.65866742	24.59522688	15.44180358
C	13.91974526	24.46093690	22.75039001
C	8.41655201	17.39086517	16.69121166
C	18.31155973	24.01543872	15.15124897
C	13.54404925	23.85002545	20.47310242
C	10.66362047	18.09083978	17.33452403
C	19.23896918	25.97771535	14.08640125
C	12.11900370	25.50181627	21.50770079
C	9.62737359	16.14570922	18.36986254
C	15.06264699	19.17851328	13.42109281
C	17.06558444	23.19800725	15.46510069
C	13.84583808	22.94605681	19.17315613
C	11.84685359	18.98148560	17.11570002
C	15.86968220	20.32394142	13.59361594
C	16.80320349	22.13666838	14.60113171
C	12.85015405	21.92848453	18.93897384
C	11.93782872	20.12123602	17.95858331
C	17.00570033	20.66908790	12.78609347
C	17.59062153	21.75898894	13.41124658
C	11.66220219	21.57970195	19.69853806
C	11.10119744	20.48661543	19.07364093
C	13.94612967	18.74122728	14.17815666
C	16.31547231	23.47931141	16.62938326
C	14.91188677	23.35429536	18.32370933
C	12.64340131	18.64668062	15.99584710
C	13.15384361	17.52015945	14.08255135
C	16.59474163	24.65810890	17.49786678
C	15.71833639	24.52506196	18.57980921
C	12.38795894	17.48852185	15.21185773
H	13.09410757	16.89248763	13.17549844
H	17.44833492	25.28858415	17.23385037
H	15.62888619	25.19630389	19.50621722
H	11.69935539	16.68661219	15.49647329
H	17.27779432	20.07723719	11.94607114
H	18.50210319	22.35117401	13.15661496
H	11.16715748	22.01805669	20.57288443
H	10.27912474	19.94039181	19.48335879
H	19.05077874	26.68860518	13.28596212
H	11.29001247	26.24368600	21.37575639
H	9.62038558	15.34059610	19.15259083
H	21.67023614	24.37333480	15.76800077
H	14.50824108	24.37088033	23.63558361
H	7.47963987	17.63630305	16.18192083
H	15.10712144	21.20213343	15.40087656
H	13.79047218	20.98593225	17.30791684
C	21.74835864	26.55009720	14.34793688
H	22.01364524	26.31791258	13.30458735
H	22.54595765	26.33924718	15.02967456
H	21.55089437	27.55684114	14.45962928
C	19.69351689	22.59585332	16.58446296
H	19.66361984	21.59949532	16.06822973
H	18.85320898	22.59993886	17.35085276
H	20.62067900	22.66382250	17.13113496
C	16.81141170	25.76176440	14.12628713
H	16.36785772	25.58740037	13.14885829
H	16.83995087	26.85086719	14.12526342
H	16.00620023	25.36894405	14.81033112
C	11.87890134	16.76838670	19.12825056
H	11.66415193	16.70722193	20.19752292
H	12.63011158	17.56690267	19.07312914
H	12.38203869	15.83392639	18.80930169
C	9.52173455	19.30739994	15.53399341
H	8.55708415	19.52314950	15.07303297
H	10.17011135	19.19077587	14.67511412
H	9.82235299	20.23209417	15.98662569
C	7.34267893	15.38179134	17.80212062
H	6.55131636	15.91555450	18.35253934
H	7.69343251	14.53257860	18.36147861
H	6.94747237	15.11949198	16.83586625
C	11.87878153	25.09916969	19.05470146
H	10.79601376	25.22558720	19.25087232
H	12.01274898	24.27163696	18.34029975
H	12.18003288	26.05273034	18.66660869
C	15.43969408	22.68811697	21.67627714
H	16.24922891	23.04256251	20.94684312
H	15.19106100	21.70966124	21.33551783
H	15.89747160	22.68825367	22.66943333
C	12.43196639	26.15003622	23.89640979
H	12.95402457	25.75758095	24.77609221
H	11.34199227	26.10638989	24.11607019
H	12.66964994	27.23516531	23.66843315
C	20.51457066	25.69726017	14.59136870
C	19.57753886	23.74318327	15.67226563
C	18.14252315	25.15610128	14.41605725
C	12.50392497	24.76335061	20.36025422
C	14.27941970	23.64664427	21.65379008
C	12.84317873	25.34126887	22.67044694
C	10.69226434	17.06220036	18.28105161
C	9.49481270	18.24552220	16.56864172
C	8.47522807	16.30478898	17.63291679
H	15.87034156	16.50283297	13.32475296
H	14.96415942	19.97306735	10.99816818
C	15.29017650	18.30536946	12.23480601
C	15.48641072	16.91993458	12.37800242
C	15.13255457	18.89596178	10.98063520

Ti O H C N 0
6-31G*
****

