%chk=f00010520.chk
%mem=24GB
%nproc=12
#p b3lyp/6-31G*

title

0 1
Ti	2.81187400	0.19704000	1.10336000
Ti	0.90594400	5.44057000	1.10336000
Ti	4.71781400	5.44057000	1.10336000
Ti	0.90594400	2.47241000	1.99114000
Ti	4.71781400	2.47241000	1.99114000
Ti	2.81187400	7.71594000	1.99115000
O	2.81187400	8.81302000	0.37332000
O	0.90594400	3.56949000	0.37332000
O	4.71781400	3.56949000	0.37332000
O	0.90594400	0.60134000	1.26110000
O	4.71781400	0.60134000	1.26110000
O	2.81187400	5.84486000	1.26111000
O	2.81187400	2.06812000	1.83340000
O	0.90594400	7.31164000	1.83340000
O	4.71781400	7.31164000	1.83340000
O	0.90594400	4.34349000	2.72118000
O	4.71781400	4.34349000	2.72118000
O	2.81187400	9.58701000	2.72118000
Ti	6.62374588	0.19704000	1.10336000
Ti	21.87123776	0.19704000	1.10336000
Ti	8.52968588	5.44057000	1.10336000
Ti	23.77717776	5.44057000	1.10336000
Ti	8.52968588	2.47241000	1.99114000
Ti	23.77717776	2.47241000	1.99114000
Ti	6.62374588	7.71594000	1.99115000
Ti	21.87123776	7.71594000	1.99115000
Ti	10.43561588	0.19704000	1.10336000
Ti	25.68310776	0.19704000	1.10336000
Ti	14.24749588	0.19704000	1.10336000
Ti	29.49498776	0.19704000	1.10336000
Ti	18.05936588	0.19704000	1.10336000
Ti	12.34155588	5.44057000	1.10336000
Ti	27.58904776	5.44057000	1.10336000
Ti	16.15343588	5.44057000	1.10336000
Ti	19.96530588	5.44057000	1.10336000
Ti	12.34155588	2.47241000	1.99114000
Ti	27.58904776	2.47241000	1.99114000
Ti	16.15343588	2.47241000	1.99114000
Ti	19.96530588	2.47241000	1.99114000
Ti	10.43561588	7.71594000	1.99115000
Ti	25.68310776	7.71594000	1.99115000
Ti	14.24749588	7.71594000	1.99115000
Ti	29.49498776	7.71594000	1.99115000
Ti	18.05936588	7.71594000	1.99115000
O	6.62374588	8.81302000	0.37332000
O	21.87123776	8.81302000	0.37332000
O	8.52968588	3.56949000	0.37332000
O	23.77717776	3.56949000	0.37332000
O	8.52968588	0.60134000	1.26110000
O	23.77717776	0.60134000	1.26110000
O	6.62374588	5.84486000	1.26111000
O	21.87123776	5.84486000	1.26111000
O	6.62374588	2.06812000	1.83340000
O	21.87123776	2.06812000	1.83340000
O	8.52968588	7.31164000	1.83340000
O	23.77717776	7.31164000	1.83340000
O	8.52968588	4.34349000	2.72118000
O	23.77717776	4.34349000	2.72118000
O	6.62374588	9.58701000	2.72118000
O	21.87123776	9.58701000	2.72118000
O	10.43561588	8.81302000	0.37332000
O	25.68310776	8.81302000	0.37332000
O	14.24749588	8.81302000	0.37332000
O	29.49498776	8.81302000	0.37332000
O	18.05936588	8.81302000	0.37332000
O	12.34155588	3.56949000	0.37332000
O	27.58904776	3.56949000	0.37332000
O	16.15343588	3.56949000	0.37332000
O	19.96530588	3.56949000	0.37332000
O	12.34155588	0.60134000	1.26110000
O	27.58904776	0.60134000	1.26110000
O	16.15343588	0.60134000	1.26110000
O	19.96530588	0.60134000	1.26110000
O	10.43561588	5.84486000	1.26111000
O	25.68310776	5.84486000	1.26111000
O	14.24749588	5.84486000	1.26111000
O	29.49498776	5.84486000	1.26111000
O	18.05936588	5.84486000	1.26111000
O	10.43561588	2.06812000	1.83340000
O	25.68310776	2.06812000	1.83340000
O	14.24749588	2.06812000	1.83340000
O	29.49498776	2.06812000	1.83340000
O	18.05936588	2.06812000	1.83340000
O	12.34155588	7.31164000	1.83340000
O	27.58904776	7.31164000	1.83340000
O	16.15343588	7.31164000	1.83340000
O	19.96530588	7.31164000	1.83340000
O	12.34155588	4.34349000	2.72118000
O	27.58904776	4.34349000	2.72118000
O	16.15343588	4.34349000	2.72118000
O	19.96530588	4.34349000	2.72118000
O	10.43561588	9.58701000	2.72118000
O	25.68310776	9.58701000	2.72118000
O	14.24749588	9.58701000	2.72118000
O	29.49498776	9.58701000	2.72118000
O	18.05936588	9.58701000	2.72118000
Ti	2.81187400	10.68408607	1.10336000
Ti	2.81187400	21.17113214	1.10336000
Ti	0.90594400	15.92761607	1.10336000
Ti	0.90594400	26.41466214	1.10336000
Ti	4.71781400	15.92761607	1.10336000
Ti	4.71781400	26.41466214	1.10336000
Ti	0.90594400	12.95945607	1.99114000
Ti	0.90594400	23.44650214	1.99114000
Ti	4.71781400	12.95945607	1.99114000
Ti	4.71781400	23.44650214	1.99114000
Ti	2.81187400	18.20298607	1.99115000
Ti	2.81187400	28.69003214	1.99115000
O	2.81187400	19.30006607	0.37332000
O	2.81187400	29.78711214	0.37332000
O	0.90594400	14.05653607	0.37332000
O	0.90594400	24.54358214	0.37332000
O	4.71781400	14.05653607	0.37332000
O	4.71781400	24.54358214	0.37332000
O	0.90594400	11.08838607	1.26110000
O	0.90594400	21.57543214	1.26110000
O	4.71781400	11.08838607	1.26110000
O	4.71781400	21.57543214	1.26110000
O	2.81187400	16.33190607	1.26111000
O	2.81187400	26.81895214	1.26111000
O	2.81187400	12.55516607	1.83340000
O	2.81187400	23.04221214	1.83340000
O	0.90594400	17.79868607	1.83340000
O	0.90594400	28.28573214	1.83340000
O	4.71781400	17.79868607	1.83340000
O	4.71781400	28.28573214	1.83340000
O	0.90594400	14.83053607	2.72118000
O	0.90594400	25.31758214	2.72118000
O	4.71781400	14.83053607	2.72118000
O	4.71781400	25.31758214	2.72118000
O	2.81187400	20.07405607	2.72118000
O	2.81187400	30.56110214	2.72118000
Ti	6.62374588	10.68408607	1.10336000
Ti	6.62374588	21.17113214	1.10336000
Ti	21.87123776	10.68408607	1.10336000
Ti	21.87123776	21.17113214	1.10336000
Ti	8.52968588	15.92761607	1.10336000
Ti	8.52968588	26.41466214	1.10336000
Ti	23.77717776	15.92761607	1.10336000
Ti	23.77717776	26.41466214	1.10336000
Ti	8.52968588	12.95945607	1.99114000
Ti	8.52968588	23.44650214	1.99114000
Ti	23.77717776	12.95945607	1.99114000
Ti	23.77717776	23.44650214	1.99114000
Ti	6.62374588	18.20298607	1.99115000
Ti	6.62374588	28.69003214	1.99115000
Ti	21.87123776	18.20298607	1.99115000
Ti	21.87123776	28.69003214	1.99115000
Ti	10.43561588	10.68408607	1.10336000
Ti	10.43561588	21.17113214	1.10336000
Ti	25.68310776	10.68408607	1.10336000
Ti	25.68310776	21.17113214	1.10336000
Ti	14.24749588	10.68408607	1.10336000
Ti	14.24749588	21.17113214	1.10336000
Ti	29.49498776	10.68408607	1.10336000
Ti	29.49498776	21.17113214	1.10336000
Ti	18.05936588	10.68408607	1.10336000
Ti	18.05936588	21.17113214	1.10336000
Ti	12.34155588	15.92761607	1.10336000
Ti	12.34155588	26.41466214	1.10336000
Ti	27.58904776	15.92761607	1.10336000
Ti	27.58904776	26.41466214	1.10336000
Ti	16.15343588	15.92761607	1.10336000
Ti	16.15343588	26.41466214	1.10336000
Ti	19.96530588	15.92761607	1.10336000
Ti	19.96530588	26.41466214	1.10336000
Ti	12.34155588	12.95945607	1.99114000
Ti	12.34155588	23.44650214	1.99114000
Ti	27.58904776	12.95945607	1.99114000
Ti	27.58904776	23.44650214	1.99114000
Ti	16.15343588	12.95945607	1.99114000
Ti	16.15343588	23.44650214	1.99114000
Ti	19.96530588	12.95945607	1.99114000
Ti	19.96530588	23.44650214	1.99114000
Ti	10.43561588	18.20298607	1.99115000
Ti	10.43561588	28.69003214	1.99115000
Ti	25.68310776	18.20298607	1.99115000
Ti	25.68310776	28.69003214	1.99115000
Ti	14.24749588	18.20298607	1.99115000
Ti	14.24749588	28.69003214	1.99115000
Ti	29.49498776	18.20298607	1.99115000
Ti	29.49498776	28.69003214	1.99115000
Ti	18.05936588	18.20298607	1.99115000
Ti	18.05936588	28.69003214	1.99115000
O	6.62374588	19.30006607	0.37332000
O	6.62374588	29.78711214	0.37332000
O	21.87123776	19.30006607	0.37332000
O	21.87123776	29.78711214	0.37332000
O	8.52968588	14.05653607	0.37332000
O	8.52968588	24.54358214	0.37332000
O	23.77717776	14.05653607	0.37332000
O	23.77717776	24.54358214	0.37332000
O	8.52968588	11.08838607	1.26110000
O	8.52968588	21.57543214	1.26110000
O	23.77717776	11.08838607	1.26110000
O	23.77717776	21.57543214	1.26110000
O	6.62374588	16.33190607	1.26111000
O	6.62374588	26.81895214	1.26111000
O	21.87123776	16.33190607	1.26111000
O	21.87123776	26.81895214	1.26111000
O	6.62374588	12.55516607	1.83340000
O	6.62374588	23.04221214	1.83340000
O	21.87123776	12.55516607	1.83340000
O	21.87123776	23.04221214	1.83340000
O	8.52968588	17.79868607	1.83340000
O	8.52968588	28.28573214	1.83340000
O	23.77717776	17.79868607	1.83340000
O	23.77717776	28.28573214	1.83340000
O	8.52968588	14.83053607	2.72118000
O	8.52968588	25.31758214	2.72118000
O	23.77717776	14.83053607	2.72118000
O	23.77717776	25.31758214	2.72118000
O	6.62374588	20.07405607	2.72118000
O	6.62374588	30.56110214	2.72118000
O	21.87123776	20.07405607	2.72118000
O	21.87123776	30.56110214	2.72118000
O	10.43561588	19.30006607	0.37332000
O	10.43561588	29.78711214	0.37332000
O	25.68310776	19.30006607	0.37332000
O	25.68310776	29.78711214	0.37332000
O	14.24749588	19.30006607	0.37332000
O	14.24749588	29.78711214	0.37332000
O	29.49498776	19.30006607	0.37332000
O	29.49498776	29.78711214	0.37332000
O	18.05936588	19.30006607	0.37332000
O	18.05936588	29.78711214	0.37332000
O	12.34155588	14.05653607	0.37332000
O	12.34155588	24.54358214	0.37332000
O	27.58904776	14.05653607	0.37332000
O	27.58904776	24.54358214	0.37332000
O	16.15343588	14.05653607	0.37332000
O	16.15343588	24.54358214	0.37332000
O	19.96530588	14.05653607	0.37332000
O	19.96530588	24.54358214	0.37332000
O	12.34155588	11.08838607	1.26110000
O	12.34155588	21.57543214	1.26110000
O	27.58904776	11.08838607	1.26110000
O	27.58904776	21.57543214	1.26110000
O	16.15343588	11.08838607	1.26110000
O	16.15343588	21.57543214	1.26110000
O	19.96530588	11.08838607	1.26110000
O	19.96530588	21.57543214	1.26110000
O	10.43561588	16.33190607	1.26111000
O	10.43561588	26.81895214	1.26111000
O	25.68310776	16.33190607	1.26111000
O	25.68310776	26.81895214	1.26111000
O	14.24749588	16.33190607	1.26111000
O	14.24749588	26.81895214	1.26111000
O	29.49498776	16.33190607	1.26111000
O	29.49498776	26.81895214	1.26111000
O	18.05936588	16.33190607	1.26111000
O	18.05936588	26.81895214	1.26111000
O	10.43561588	12.55516607	1.83340000
O	10.43561588	23.04221214	1.83340000
O	25.68310776	12.55516607	1.83340000
O	25.68310776	23.04221214	1.83340000
O	14.24749588	12.55516607	1.83340000
O	14.24749588	23.04221214	1.83340000
O	29.49498776	12.55516607	1.83340000
O	29.49498776	23.04221214	1.83340000
O	18.05936588	12.55516607	1.83340000
O	18.05936588	23.04221214	1.83340000
O	12.34155588	17.79868607	1.83340000
O	12.34155588	28.28573214	1.83340000
O	27.58904776	17.79868607	1.83340000
O	27.58904776	28.28573214	1.83340000
O	16.15343588	17.79868607	1.83340000
O	16.15343588	28.28573214	1.83340000
O	19.96530588	17.79868607	1.83340000
O	19.96530588	28.28573214	1.83340000
O	12.34155588	14.83053607	2.72118000
O	12.34155588	25.31758214	2.72118000
O	27.58904776	14.83053607	2.72118000
O	27.58904776	25.31758214	2.72118000
O	16.15343588	14.83053607	2.72118000
O	16.15343588	25.31758214	2.72118000
O	19.96530588	14.83053607	2.72118000
O	19.96530588	25.31758214	2.72118000
O	10.43561588	20.07405607	2.72118000
O	10.43561588	30.56110214	2.72118000
O	25.68310776	20.07405607	2.72118000
O	25.68310776	30.56110214	2.72118000
O	14.24749588	20.07405607	2.72118000
O	14.24749588	30.56110214	2.72118000
O	29.49498776	20.07405607	2.72118000
O	29.49498776	30.56110214	2.72118000
O	18.05936588	20.07405607	2.72118000
O	18.05936588	30.56110214	2.72118000
Ti	6.57526456	9.20397107	4.71827765
Ti	6.58935084	6.31429178	5.49710118
Ti	2.74337817	9.24535112	4.70405222
Ti	0.86843106	3.97546977	4.83340416
Ti	4.72228268	3.98869594	4.80040344
Ti	0.86872686	1.06816533	5.52201853
Ti	4.75546471	1.05778121	5.71844789
Ti	2.91636715	6.35403919	5.45549099
O	6.65689152	7.34565471	3.88531592
O	6.65736793	4.48630160	4.72556331
O	6.67937895	0.51210437	5.80786038
O	6.50965548	8.17910076	6.36300424
O	3.05043237	7.44261079	3.90110134
O	0.93905761	2.10289601	3.93630050
O	4.65010286	1.98376355	4.00405244
O	0.84510935	9.54320863	4.68217716
O	4.68062293	9.69804434	4.74236291
O	2.79243876	4.45094831	4.72754271
O	2.76155383	0.65958624	5.83447173
O	0.90547928	5.78994638	5.79239957
O	4.73359904	5.98521290	5.84073352
O	0.93048892	2.75261645	6.41418830
O	4.82341475	2.84469820	6.42891059
O	2.86694734	8.15934054	6.29380851
Ti	21.93765085	9.25270060	4.68642208
Ti	8.51555559	3.98539661	4.76254366
Ti	23.84742211	4.02045058	4.82290743
Ti	8.64541873	1.05605920	5.47234165
Ti	23.75668691	1.17291514	5.68157456
Ti	21.99490209	6.36176715	5.52275273
Ti	10.39570703	9.20929562	4.71217898
Ti	25.74208786	9.24722226	4.84638498
Ti	14.25243558	9.31912248	4.67444457
Ti	29.46213133	9.08323121	4.77225093
Ti	18.10722610	9.26492388	4.80786732
Ti	12.32300448	4.05828021	4.71587303
Ti	27.59302294	4.00966553	4.70060138
Ti	16.19384579	4.03409518	4.77459051
Ti	20.02160356	4.02303031	4.81543504
Ti	12.36075492	1.12981821	5.51086040
Ti	27.64498751	1.07358309	5.43102714
Ti	16.17545926	1.13331874	5.55957248
Ti	20.03711508	1.16540971	5.56592495
Ti	10.36432122	6.35307696	5.51184446
Ti	25.63828936	6.28642336	5.62698193
Ti	14.10509170	6.38480899	5.57244013
Ti	29.47492787	6.22781303	5.45844167
Ti	18.13523482	6.36790926	5.57268413
O	22.05777861	7.49264733	3.99267954
O	8.61893582	2.20936281	3.93645934
O	23.60391862	2.18565964	4.05712641
O	8.47942986	9.66394268	4.79313184
O	23.80090998	9.80259817	4.84493345
O	21.87478073	4.50511178	4.73264882
O	21.87111351	0.65390509	5.86806686
O	8.46247660	5.78867225	5.90653937
O	23.80080068	5.89570501	5.90262697
O	8.59399701	2.83189677	6.40857313
O	24.04590274	2.93926743	6.38502277
O	21.81748232	8.01910160	6.42814336
O	10.28432400	7.41122953	3.88670187
O	25.83300683	7.41660149	4.00094224
O	14.23579440	7.42984731	3.99173041
O	29.55351760	7.25275289	3.89895735
O	17.98414714	7.41814741	3.99304780
O	12.40286709	2.18725628	3.94656371
O	27.55015958	2.11431732	3.87243197
O	16.26376188	2.13029922	4.01056080
O	20.13037183	2.17128210	3.99673259
O	12.30945348	9.79257181	4.76398771
O	27.60116588	9.49192141	4.77039026
O	16.21115338	9.52400091	4.87795092
O	20.06736909	9.66543458	4.59553585
O	10.45050943	4.46557416	4.89469097
O	25.71110960	4.60060617	4.55656756
O	14.25366395	4.48206336	5.05106533
O	29.49696187	4.29402363	4.87508597
O	18.06762496	4.39742482	4.86659056
O	10.47064506	0.61024608	5.63987449
O	25.64558183	0.61582762	5.85894260
O	14.24862164	0.77044172	5.67675784
O	29.51187988	0.57671382	5.67394579
O	18.09275693	0.56284238	5.93346380
O	12.22488012	5.81629346	5.92591341
O	27.56326275	5.75081024	5.76628705
O	16.18448739	5.94205497	5.51924173
O	20.07183957	5.79452585	5.86575352
O	12.35620340	2.88641287	6.36454860
O	27.58874634	2.86554656	6.25898299
O	16.36661812	2.88106650	6.39843266
O	20.11307746	2.99690230	6.37101811
O	10.33029989	8.11926306	6.37551224
O	25.66916502	7.96042422	6.50505054
O	13.91167760	8.22686168	6.25300492
O	29.51045005	7.86361137	6.32856862
O	18.14847290	7.99628074	6.40310522
Ti	6.61159966	19.76583209	4.82864825
Ti	6.60926801	30.25646390	4.77704663
Ti	6.61647605	16.82953539	5.39962335
Ti	6.51192222	27.33727912	5.42099424
Ti	2.86320884	19.70392954	4.81198129
Ti	2.83572194	30.20039054	4.70187456
Ti	0.84316979	14.36248605	4.74874358
Ti	0.92691209	24.91260280	4.76676694
Ti	4.70718020	14.45392772	4.77929365
Ti	4.72704673	25.02458790	4.69817414
Ti	0.90229370	11.45467102	5.46842298
Ti	0.96189125	21.96348191	5.43501484
Ti	4.69201672	11.59173503	5.65889861
Ti	4.58586357	22.05731331	5.62264076
Ti	2.82296450	16.80843635	5.55121148
Ti	2.84388886	27.22322704	5.55374210
O	6.57867649	17.89690673	3.94337475
O	6.65060421	28.42413910	3.94836889
O	6.62304629	14.99780047	4.67137110
O	6.61897486	25.40962678	4.84189952
O	6.64520658	10.97058377	6.05390698
O	6.51300824	21.53596501	5.83328559
O	6.40874266	18.58840346	6.31510446
O	6.57879159	28.99837842	6.31204594
O	2.85849102	17.78770137	3.94835731
O	2.93294665	28.29419166	3.82651701
O	1.10884965	12.47056050	3.89744914
O	0.78003912	23.12304169	3.96890302
O	4.65513820	12.63298040	3.97128354
O	4.64986217	23.07577590	3.94863255
O	0.99387790	20.16394861	4.62438957
O	0.91330102	30.74971991	4.56690989
O	4.75294426	20.27950799	4.78136237
O	4.67085807	30.63347869	4.97528577
O	2.84397743	14.89850620	4.79882296
O	2.79456081	25.44250637	4.77746309
O	2.81642686	11.07370307	5.76542242
O	2.74026172	21.43913762	5.78667272
O	0.99393942	16.30017871	5.63551255
O	0.88233713	26.75152883	5.79338614
O	4.73170546	16.24752260	5.85998031
O	4.75713607	26.86841163	6.00507792
O	1.01091233	13.29358288	6.32855126
O	0.92255926	23.71737235	6.34580970
O	4.88047145	13.36168441	6.37999553
O	4.53210349	23.88024936	6.28938488
O	2.94258717	18.50434263	6.42401621
O	2.61380525	29.04437142	6.35075880
Ti	21.84815348	19.76731954	4.72522004
Ti	21.84714279	30.24377513	4.85092497
Ti	8.45621405	14.47933013	4.83371072
Ti	8.49851642	25.06686805	4.72109337
Ti	23.75020532	14.39455913	4.64756054
Ti	23.89513165	24.81704370	4.91801290
Ti	8.42536262	11.52448248	5.44064837
Ti	8.40787288	22.15751897	5.57441778
Ti	23.79144877	11.62143101	5.58718694
Ti	23.78147431	21.98878108	5.55068659
Ti	21.80860090	16.86422830	5.47027979
Ti	22.02701173	27.32147864	5.50145917
Ti	10.37194452	19.82491012	4.95369950
Ti	10.45199678	30.30291977	4.67390144
Ti	25.64106746	19.63977828	4.63093787
Ti	25.67492631	30.29654056	4.74101418
Ti	14.20451079	19.61067695	4.80158971
Ti	14.36370489	30.26005289	4.70977471
Ti	29.53146568	19.74616098	4.72820218
Ti	29.46551200	30.28403352	4.62960103
Ti	17.97820134	19.66713252	4.78550212
Ti	18.09110203	30.25058504	4.72939220
Ti	12.31169944	14.58756551	4.71003504
Ti	12.32376416	24.95228922	4.64423679
Ti	27.59858919	14.56632371	4.83175202
Ti	27.63021754	24.94215910	4.70639798
Ti	16.08638613	14.48504381	4.76790746
Ti	16.22370384	24.97999437	4.75758072
Ti	19.95980309	14.60263280	4.64161405
Ti	20.12295491	24.95949729	4.72474650
Ti	12.39630759	11.68162138	5.48940943
Ti	12.22229302	22.11199677	5.55991562
Ti	27.63751813	11.45392420	5.49705933
Ti	27.64521949	21.98772995	5.54115270
Ti	16.17826949	11.56478926	5.52242275
Ti	16.10660078	22.05901266	5.39353755
Ti	19.96755419	11.68502520	5.48289648
Ti	19.97683138	22.04674141	5.54889627
Ti	10.34661576	16.89579002	5.61913370
Ti	10.48689529	27.27015650	5.44414050
Ti	25.64867146	16.78014826	5.66474015
Ti	25.68522060	27.37901414	5.45094191
Ti	14.25348389	16.67514243	5.66497207
Ti	14.38297614	27.33630726	5.30725539
Ti	29.57649231	16.74228917	5.49676671
Ti	29.52064954	27.39638198	5.55333908
Ti	17.99165137	16.70870730	5.32741245
Ti	18.05776730	27.31190096	5.44932402
O	21.81079585	17.93406345	3.93846487
O	22.09657551	28.36358003	3.93397105
O	8.48252990	12.46349856	3.87617661
O	8.37193502	23.15142291	3.93669510
O	23.59738505	12.47726283	3.91321272
O	23.85461683	23.11517659	3.97401906
O	8.41060608	20.34768838	4.59872996
O	8.54450451	30.63454766	4.75671215
O	23.73017676	20.06645110	4.81661826
O	23.80002286	30.67743274	4.81798298
O	21.86260223	15.00630549	4.73136373
O	21.94736885	25.29045804	4.95136805
O	21.83699887	10.99474078	5.85352679
O	21.80990283	21.62206199	5.74610398
O	8.43656373	16.42582636	5.86136015
O	8.42578680	26.91104876	5.70076734
O	23.70923480	16.34951551	5.76713639
O	23.88626260	26.69506538	5.75227492
O	8.43553176	13.29699716	6.31037337
O	8.54684614	23.90902437	6.41551674
O	23.63952169	13.42431231	6.28120602
O	23.66618994	23.69812725	6.44968815
O	21.68425690	18.64919206	6.42646072
O	21.71446898	28.97248360	6.42885038
O	10.41149705	17.93227689	4.03051152
O	10.67285207	28.32165070	3.86977479
O	25.62704848	17.75413987	3.99817154
O	25.59885085	28.46390340	3.87193018
O	14.07055430	17.72789699	3.93576440
O	14.24700804	28.44005320	3.88354744
O	29.50232860	17.88577675	3.97270400
O	29.42811091	28.37832157	3.98274734
O	18.06282370	17.82397012	3.86006873
O	17.87961764	28.34419115	3.85723959
O	12.28072329	12.64843805	3.93421618
O	12.32483659	23.02009184	3.94968809
O	27.58109240	12.47039578	3.89642119
O	27.75676082	23.04798980	3.93676247
O	16.00180419	12.43647467	3.88797808
O	15.92442993	23.12147099	3.92828660
O	20.07858776	12.74551086	3.91230477
O	20.06258715	23.00925596	3.92852068
O	12.34017932	20.10158835	4.79510244
O	12.40457299	30.75614738	4.79394381
O	27.57101102	20.20816327	4.78329915
O	27.53658809	30.65898669	4.88466360
O	16.14130666	20.14048048	4.85867738
O	16.19893471	30.72251253	4.85606036
O	19.80608820	20.23964271	4.82458760
O	19.97002804	30.80307212	4.66005060
O	10.33777113	14.99235161	4.83042615
O	10.37973075	25.48654947	4.57122949
O	25.67693404	14.95512997	4.86847796
O	25.73996565	25.33053437	4.88497558
O	14.24111789	14.97875975	4.72895166
O	14.31182959	25.22396855	4.82057798
O	29.49557731	14.78948534	4.82342556
O	29.51797881	25.45041077	4.73437350
O	18.03246928	14.88659853	4.65577736
O	18.16759479	25.31472593	4.68498310
O	10.41938588	11.05987868	5.69938854
O	10.35580019	21.73674100	5.84244257
O	25.68935880	11.05628107	5.71001019
O	25.59706225	21.43344013	5.83650145
O	14.32404397	11.06131448	5.66056407
O	14.19189918	21.52203445	5.71725312
O	29.52198906	10.97553320	5.78254278
O	29.56890028	21.51431824	5.69072915
O	18.04996166	11.12753015	5.70338358
O	18.00269813	21.63830635	5.73014556
O	12.27409431	16.41035079	5.58068163
O	12.39936137	26.77224975	5.63738388
O	27.60367550	16.40942942	5.67915531
O	27.54438233	26.75686251	5.69635208
O	16.20423250	16.16707355	5.74379801
O	16.23215466	26.77140918	5.69345246
O	19.92206071	16.26430470	5.80100260
O	20.13384877	26.86206133	5.64625903
O	12.40781393	13.39547397	6.26807470
O	12.36458636	23.84996570	6.33548494
O	27.41919630	13.23741263	6.33612308
O	27.61295144	23.79740942	6.32619843
O	16.17215327	13.24688259	6.32576686
O	16.04762794	23.76896838	6.40923636
O	20.29168443	13.39631670	6.28864777
O	19.94552575	23.84683674	6.43600046
O	10.29221013	18.65798874	6.47931159
O	10.51266754	28.99066691	6.28518398
O	25.46382879	18.50940840	6.31577425
O	25.69418817	28.94926416	6.39613876
O	14.09751251	18.42075320	6.36731906
O	14.33499882	29.08087876	6.27766337
O	29.60225109	18.56391521	6.27938118
O	29.68640552	29.09738844	6.41934403
O	18.07592093	18.49475866	6.36786929
O	18.18506215	29.00942842	6.31826288
H	15.86448264	14.69709250	7.66756135
H	15.54476232	15.29371710	10.98075071
H	13.05711658	17.92847818	8.84026890
O	13.99389573	15.95173685	7.48613255
O	15.68683369	15.07904751	8.58228979
C	14.66337691	15.81159452	8.64424358
C	14.33267702	16.53767866	9.83526499
C	14.98538100	16.19473848	11.01297032
C	13.43411500	17.62273155	9.87077174
N	12.88719271	19.28893632	15.67670956
N	15.29579214	22.58507485	16.78624885
N	15.04587604	20.96091942	14.43990734
N	13.13447830	20.72303216	18.11548751
C	20.24744756	23.76400802	14.04119493
C	16.38344855	23.19939181	22.41765467
C	8.08650922	18.19674819	19.12628901
C	17.82978894	23.60919841	14.22532010
C	14.87947824	23.11429262	20.50120200
C	10.35684753	18.12778607	18.28344317
C	18.87804323	25.37112790	12.90120820
C	14.24704195	24.47382451	22.46534644
C	9.36676435	16.16643411	19.34207249
C	13.87112463	19.00110740	13.42651324
C	16.63757719	22.94327684	14.77114892
C	14.49884861	22.54477970	19.14986683
C	11.48910340	18.85970985	17.70270381
C	14.82009912	20.03001501	13.45523519
C	15.98429591	21.88073172	14.08653083
C	13.60890608	21.44826139	19.14446378
C	12.11463215	19.93082149	18.45760527
C	15.66521297	20.50308045	12.31374412
C	16.29341636	21.64060098	12.68851466
C	12.78769019	21.10170785	20.28812899
C	11.85758710	20.19847946	19.84368694
C	12.99176320	18.59670208	14.43007417
C	16.27915809	23.26911134	16.10306293
C	15.30337579	23.09864659	18.10003240
C	11.85413988	18.58126815	16.39976563
C	12.04277247	17.46699847	14.40951326
C	16.82263778	24.30488909	16.99226333
C	16.19517385	24.22215408	18.17680696
C	11.35890912	17.45286635	15.64396658
H	11.80660350	16.77044767	13.57337916
H	17.49935475	25.12187687	16.71051838
H	16.34833655	24.88582695	19.01949645
H	10.65933612	16.64131151	16.00055339
H	15.71606837	19.95442611	11.39987425
H	16.91180534	22.28467140	12.13536753
H	12.92389057	21.59379163	21.26491398
H	11.01408901	19.78331219	20.41121496
H	18.85356953	26.27378257	12.30560119
H	13.53264341	25.15244527	22.99727397
H	9.37057657	15.10887720	19.53369889
H	21.28257696	23.39386582	14.09755836
H	17.28251978	22.85977328	23.00183195
H	7.10963229	18.72147311	19.24353518
H	14.55751007	20.98545194	15.35215819
H	13.44180519	20.78973653	17.14843535
C	21.39301266	25.66674020	12.78585006
H	21.07045518	26.49197420	12.16285867
H	22.12228737	25.04818746	12.36143078
H	21.84217356	26.13161640	13.69355127
C	19.39158666	21.92686161	15.43871317
H	20.09371313	21.24785893	14.84220284
H	18.44974391	21.38657685	15.70684704
H	19.99413341	22.14685165	16.33231344
C	16.38186088	25.19612996	12.95113788
H	16.22060020	26.30486681	12.92257594
H	15.56460585	24.81702484	13.54379346
H	16.15303192	24.93188703	11.89697530
C	11.69445301	15.93995043	18.35818759
H	12.48930687	16.48057028	17.75516072
H	11.43157670	15.03378525	17.77019529
H	12.27075297	15.71071636	19.28098483
C	9.08632427	20.21600365	17.84631723
H	9.88173242	20.40399638	17.08777066
H	9.14852802	21.02231249	18.62751782
H	8.19738129	20.30764091	17.22587335
C	6.97199547	16.14919488	20.09320951
H	6.62590509	16.66239492	20.96296979
H	7.27729142	15.18147304	20.45993256
H	6.13348642	16.00119591	19.41628798
C	12.88030886	24.67398496	20.34017306
H	12.59689871	23.85924523	19.62338440
H	13.23224904	25.57810536	19.79035304
H	11.98547875	25.09894335	20.87027120
C	16.91991649	21.63121293	20.47712686
H	16.75622913	21.47918318	19.39080257
H	16.97552822	20.63313646	20.98970513
H	17.97089671	21.90564538	20.60335002
C	15.85345197	24.57720557	24.42018275
H	16.90819516	24.31936502	24.57780251
H	15.18729849	24.17913285	25.19905118
H	15.74372245	25.68443857	24.38474470
C	20.16436782	24.91929726	13.23148292
C	19.13833957	23.14858427	14.53396863
C	17.72556220	24.72352825	13.33474292
C	14.00418090	24.04935792	21.17639383
C	16.05255799	22.64545661	21.14411073
C	15.49799887	24.09967940	23.05847026
C	10.47982404	16.76781042	18.68963211
C	9.13118634	18.84208697	18.46560178
C	8.18480250	16.86455904	19.53415034
H	15.30914164	16.70561835	13.10943354
H	12.57575650	19.22173150	11.03823175
C	13.97235080	18.13071003	12.18893157
C	14.77982281	16.96701829	12.15936721
C	13.21908856	18.35035864	11.01743077

Ti O H C N 0
6-31G*
****

