%chk=f00014782.chk
%mem=24GB
%nproc=12
#p b3lyp/6-31G*

title

0 1
Ti	2.81187400	0.19704000	1.10336000
Ti	0.90594400	5.44057000	1.10336000
Ti	4.71781400	5.44057000	1.10336000
Ti	0.90594400	2.47241000	1.99114000
Ti	4.71781400	2.47241000	1.99114000
Ti	2.81187400	7.71594000	1.99115000
O	2.81187400	8.81302000	0.37332000
O	0.90594400	3.56949000	0.37332000
O	4.71781400	3.56949000	0.37332000
O	0.90594400	0.60134000	1.26110000
O	4.71781400	0.60134000	1.26110000
O	2.81187400	5.84486000	1.26111000
O	2.81187400	2.06812000	1.83340000
O	0.90594400	7.31164000	1.83340000
O	4.71781400	7.31164000	1.83340000
O	0.90594400	4.34349000	2.72118000
O	4.71781400	4.34349000	2.72118000
O	2.81187400	9.58701000	2.72118000
Ti	6.62374588	0.19704000	1.10336000
Ti	21.87123776	0.19704000	1.10336000
Ti	8.52968588	5.44057000	1.10336000
Ti	23.77717776	5.44057000	1.10336000
Ti	8.52968588	2.47241000	1.99114000
Ti	23.77717776	2.47241000	1.99114000
Ti	6.62374588	7.71594000	1.99115000
Ti	21.87123776	7.71594000	1.99115000
Ti	10.43561588	0.19704000	1.10336000
Ti	25.68310776	0.19704000	1.10336000
Ti	14.24749588	0.19704000	1.10336000
Ti	29.49498776	0.19704000	1.10336000
Ti	18.05936588	0.19704000	1.10336000
Ti	12.34155588	5.44057000	1.10336000
Ti	27.58904776	5.44057000	1.10336000
Ti	16.15343588	5.44057000	1.10336000
Ti	19.96530588	5.44057000	1.10336000
Ti	12.34155588	2.47241000	1.99114000
Ti	27.58904776	2.47241000	1.99114000
Ti	16.15343588	2.47241000	1.99114000
Ti	19.96530588	2.47241000	1.99114000
Ti	10.43561588	7.71594000	1.99115000
Ti	25.68310776	7.71594000	1.99115000
Ti	14.24749588	7.71594000	1.99115000
Ti	29.49498776	7.71594000	1.99115000
Ti	18.05936588	7.71594000	1.99115000
O	6.62374588	8.81302000	0.37332000
O	21.87123776	8.81302000	0.37332000
O	8.52968588	3.56949000	0.37332000
O	23.77717776	3.56949000	0.37332000
O	8.52968588	0.60134000	1.26110000
O	23.77717776	0.60134000	1.26110000
O	6.62374588	5.84486000	1.26111000
O	21.87123776	5.84486000	1.26111000
O	6.62374588	2.06812000	1.83340000
O	21.87123776	2.06812000	1.83340000
O	8.52968588	7.31164000	1.83340000
O	23.77717776	7.31164000	1.83340000
O	8.52968588	4.34349000	2.72118000
O	23.77717776	4.34349000	2.72118000
O	6.62374588	9.58701000	2.72118000
O	21.87123776	9.58701000	2.72118000
O	10.43561588	8.81302000	0.37332000
O	25.68310776	8.81302000	0.37332000
O	14.24749588	8.81302000	0.37332000
O	29.49498776	8.81302000	0.37332000
O	18.05936588	8.81302000	0.37332000
O	12.34155588	3.56949000	0.37332000
O	27.58904776	3.56949000	0.37332000
O	16.15343588	3.56949000	0.37332000
O	19.96530588	3.56949000	0.37332000
O	12.34155588	0.60134000	1.26110000
O	27.58904776	0.60134000	1.26110000
O	16.15343588	0.60134000	1.26110000
O	19.96530588	0.60134000	1.26110000
O	10.43561588	5.84486000	1.26111000
O	25.68310776	5.84486000	1.26111000
O	14.24749588	5.84486000	1.26111000
O	29.49498776	5.84486000	1.26111000
O	18.05936588	5.84486000	1.26111000
O	10.43561588	2.06812000	1.83340000
O	25.68310776	2.06812000	1.83340000
O	14.24749588	2.06812000	1.83340000
O	29.49498776	2.06812000	1.83340000
O	18.05936588	2.06812000	1.83340000
O	12.34155588	7.31164000	1.83340000
O	27.58904776	7.31164000	1.83340000
O	16.15343588	7.31164000	1.83340000
O	19.96530588	7.31164000	1.83340000
O	12.34155588	4.34349000	2.72118000
O	27.58904776	4.34349000	2.72118000
O	16.15343588	4.34349000	2.72118000
O	19.96530588	4.34349000	2.72118000
O	10.43561588	9.58701000	2.72118000
O	25.68310776	9.58701000	2.72118000
O	14.24749588	9.58701000	2.72118000
O	29.49498776	9.58701000	2.72118000
O	18.05936588	9.58701000	2.72118000
Ti	2.81187400	10.68408607	1.10336000
Ti	2.81187400	21.17113214	1.10336000
Ti	0.90594400	15.92761607	1.10336000
Ti	0.90594400	26.41466214	1.10336000
Ti	4.71781400	15.92761607	1.10336000
Ti	4.71781400	26.41466214	1.10336000
Ti	0.90594400	12.95945607	1.99114000
Ti	0.90594400	23.44650214	1.99114000
Ti	4.71781400	12.95945607	1.99114000
Ti	4.71781400	23.44650214	1.99114000
Ti	2.81187400	18.20298607	1.99115000
Ti	2.81187400	28.69003214	1.99115000
O	2.81187400	19.30006607	0.37332000
O	2.81187400	29.78711214	0.37332000
O	0.90594400	14.05653607	0.37332000
O	0.90594400	24.54358214	0.37332000
O	4.71781400	14.05653607	0.37332000
O	4.71781400	24.54358214	0.37332000
O	0.90594400	11.08838607	1.26110000
O	0.90594400	21.57543214	1.26110000
O	4.71781400	11.08838607	1.26110000
O	4.71781400	21.57543214	1.26110000
O	2.81187400	16.33190607	1.26111000
O	2.81187400	26.81895214	1.26111000
O	2.81187400	12.55516607	1.83340000
O	2.81187400	23.04221214	1.83340000
O	0.90594400	17.79868607	1.83340000
O	0.90594400	28.28573214	1.83340000
O	4.71781400	17.79868607	1.83340000
O	4.71781400	28.28573214	1.83340000
O	0.90594400	14.83053607	2.72118000
O	0.90594400	25.31758214	2.72118000
O	4.71781400	14.83053607	2.72118000
O	4.71781400	25.31758214	2.72118000
O	2.81187400	20.07405607	2.72118000
O	2.81187400	30.56110214	2.72118000
Ti	6.62374588	10.68408607	1.10336000
Ti	6.62374588	21.17113214	1.10336000
Ti	21.87123776	10.68408607	1.10336000
Ti	21.87123776	21.17113214	1.10336000
Ti	8.52968588	15.92761607	1.10336000
Ti	8.52968588	26.41466214	1.10336000
Ti	23.77717776	15.92761607	1.10336000
Ti	23.77717776	26.41466214	1.10336000
Ti	8.52968588	12.95945607	1.99114000
Ti	8.52968588	23.44650214	1.99114000
Ti	23.77717776	12.95945607	1.99114000
Ti	23.77717776	23.44650214	1.99114000
Ti	6.62374588	18.20298607	1.99115000
Ti	6.62374588	28.69003214	1.99115000
Ti	21.87123776	18.20298607	1.99115000
Ti	21.87123776	28.69003214	1.99115000
Ti	10.43561588	10.68408607	1.10336000
Ti	10.43561588	21.17113214	1.10336000
Ti	25.68310776	10.68408607	1.10336000
Ti	25.68310776	21.17113214	1.10336000
Ti	14.24749588	10.68408607	1.10336000
Ti	14.24749588	21.17113214	1.10336000
Ti	29.49498776	10.68408607	1.10336000
Ti	29.49498776	21.17113214	1.10336000
Ti	18.05936588	10.68408607	1.10336000
Ti	18.05936588	21.17113214	1.10336000
Ti	12.34155588	15.92761607	1.10336000
Ti	12.34155588	26.41466214	1.10336000
Ti	27.58904776	15.92761607	1.10336000
Ti	27.58904776	26.41466214	1.10336000
Ti	16.15343588	15.92761607	1.10336000
Ti	16.15343588	26.41466214	1.10336000
Ti	19.96530588	15.92761607	1.10336000
Ti	19.96530588	26.41466214	1.10336000
Ti	12.34155588	12.95945607	1.99114000
Ti	12.34155588	23.44650214	1.99114000
Ti	27.58904776	12.95945607	1.99114000
Ti	27.58904776	23.44650214	1.99114000
Ti	16.15343588	12.95945607	1.99114000
Ti	16.15343588	23.44650214	1.99114000
Ti	19.96530588	12.95945607	1.99114000
Ti	19.96530588	23.44650214	1.99114000
Ti	10.43561588	18.20298607	1.99115000
Ti	10.43561588	28.69003214	1.99115000
Ti	25.68310776	18.20298607	1.99115000
Ti	25.68310776	28.69003214	1.99115000
Ti	14.24749588	18.20298607	1.99115000
Ti	14.24749588	28.69003214	1.99115000
Ti	29.49498776	18.20298607	1.99115000
Ti	29.49498776	28.69003214	1.99115000
Ti	18.05936588	18.20298607	1.99115000
Ti	18.05936588	28.69003214	1.99115000
O	6.62374588	19.30006607	0.37332000
O	6.62374588	29.78711214	0.37332000
O	21.87123776	19.30006607	0.37332000
O	21.87123776	29.78711214	0.37332000
O	8.52968588	14.05653607	0.37332000
O	8.52968588	24.54358214	0.37332000
O	23.77717776	14.05653607	0.37332000
O	23.77717776	24.54358214	0.37332000
O	8.52968588	11.08838607	1.26110000
O	8.52968588	21.57543214	1.26110000
O	23.77717776	11.08838607	1.26110000
O	23.77717776	21.57543214	1.26110000
O	6.62374588	16.33190607	1.26111000
O	6.62374588	26.81895214	1.26111000
O	21.87123776	16.33190607	1.26111000
O	21.87123776	26.81895214	1.26111000
O	6.62374588	12.55516607	1.83340000
O	6.62374588	23.04221214	1.83340000
O	21.87123776	12.55516607	1.83340000
O	21.87123776	23.04221214	1.83340000
O	8.52968588	17.79868607	1.83340000
O	8.52968588	28.28573214	1.83340000
O	23.77717776	17.79868607	1.83340000
O	23.77717776	28.28573214	1.83340000
O	8.52968588	14.83053607	2.72118000
O	8.52968588	25.31758214	2.72118000
O	23.77717776	14.83053607	2.72118000
O	23.77717776	25.31758214	2.72118000
O	6.62374588	20.07405607	2.72118000
O	6.62374588	30.56110214	2.72118000
O	21.87123776	20.07405607	2.72118000
O	21.87123776	30.56110214	2.72118000
O	10.43561588	19.30006607	0.37332000
O	10.43561588	29.78711214	0.37332000
O	25.68310776	19.30006607	0.37332000
O	25.68310776	29.78711214	0.37332000
O	14.24749588	19.30006607	0.37332000
O	14.24749588	29.78711214	0.37332000
O	29.49498776	19.30006607	0.37332000
O	29.49498776	29.78711214	0.37332000
O	18.05936588	19.30006607	0.37332000
O	18.05936588	29.78711214	0.37332000
O	12.34155588	14.05653607	0.37332000
O	12.34155588	24.54358214	0.37332000
O	27.58904776	14.05653607	0.37332000
O	27.58904776	24.54358214	0.37332000
O	16.15343588	14.05653607	0.37332000
O	16.15343588	24.54358214	0.37332000
O	19.96530588	14.05653607	0.37332000
O	19.96530588	24.54358214	0.37332000
O	12.34155588	11.08838607	1.26110000
O	12.34155588	21.57543214	1.26110000
O	27.58904776	11.08838607	1.26110000
O	27.58904776	21.57543214	1.26110000
O	16.15343588	11.08838607	1.26110000
O	16.15343588	21.57543214	1.26110000
O	19.96530588	11.08838607	1.26110000
O	19.96530588	21.57543214	1.26110000
O	10.43561588	16.33190607	1.26111000
O	10.43561588	26.81895214	1.26111000
O	25.68310776	16.33190607	1.26111000
O	25.68310776	26.81895214	1.26111000
O	14.24749588	16.33190607	1.26111000
O	14.24749588	26.81895214	1.26111000
O	29.49498776	16.33190607	1.26111000
O	29.49498776	26.81895214	1.26111000
O	18.05936588	16.33190607	1.26111000
O	18.05936588	26.81895214	1.26111000
O	10.43561588	12.55516607	1.83340000
O	10.43561588	23.04221214	1.83340000
O	25.68310776	12.55516607	1.83340000
O	25.68310776	23.04221214	1.83340000
O	14.24749588	12.55516607	1.83340000
O	14.24749588	23.04221214	1.83340000
O	29.49498776	12.55516607	1.83340000
O	29.49498776	23.04221214	1.83340000
O	18.05936588	12.55516607	1.83340000
O	18.05936588	23.04221214	1.83340000
O	12.34155588	17.79868607	1.83340000
O	12.34155588	28.28573214	1.83340000
O	27.58904776	17.79868607	1.83340000
O	27.58904776	28.28573214	1.83340000
O	16.15343588	17.79868607	1.83340000
O	16.15343588	28.28573214	1.83340000
O	19.96530588	17.79868607	1.83340000
O	19.96530588	28.28573214	1.83340000
O	12.34155588	14.83053607	2.72118000
O	12.34155588	25.31758214	2.72118000
O	27.58904776	14.83053607	2.72118000
O	27.58904776	25.31758214	2.72118000
O	16.15343588	14.83053607	2.72118000
O	16.15343588	25.31758214	2.72118000
O	19.96530588	14.83053607	2.72118000
O	19.96530588	25.31758214	2.72118000
O	10.43561588	20.07405607	2.72118000
O	10.43561588	30.56110214	2.72118000
O	25.68310776	20.07405607	2.72118000
O	25.68310776	30.56110214	2.72118000
O	14.24749588	20.07405607	2.72118000
O	14.24749588	30.56110214	2.72118000
O	29.49498776	20.07405607	2.72118000
O	29.49498776	30.56110214	2.72118000
O	18.05936588	20.07405607	2.72118000
O	18.05936588	30.56110214	2.72118000
Ti	6.56734809	9.20172460	4.87820575
Ti	6.70741467	6.29424477	5.57679495
Ti	2.86363326	9.15891963	4.81781635
Ti	0.90435402	3.87566917	4.79185158
Ti	4.80742607	4.00303111	4.76876403
Ti	0.84035226	0.98469037	5.45422483
Ti	4.62640624	1.09865510	5.57907963
Ti	2.91914639	6.23579504	5.46641380
O	6.76593744	7.35244488	3.90735100
O	6.72369374	4.38142670	4.74306126
O	6.59223899	0.49438555	5.95334344
O	6.59403017	8.04224207	6.32920963
O	3.07650927	7.36391548	3.97913435
O	0.89376949	2.07097977	3.88735205
O	4.60906714	2.07208245	3.87041515
O	0.89400670	9.63151931	4.72397646
O	4.76603132	9.69301232	4.73258577
O	2.88088747	4.31947912	4.83900570
O	2.74126298	0.53669605	5.84233971
O	1.00415659	5.81836186	5.84057676
O	4.80142402	5.71612618	5.89358419
O	0.74084205	2.68910655	6.39607634
O	4.89701920	2.81956690	6.30716387
O	2.86594970	8.06126298	6.34104707
Ti	21.87277687	9.25072067	4.91743005
Ti	8.61437455	3.92539739	4.67276947
Ti	23.78443366	3.94374981	4.68956946
Ti	8.55863104	1.02081776	5.53372319
Ti	23.72051848	1.03889067	5.44803535
Ti	21.98523577	6.31825797	5.56568615
Ti	10.44478999	9.11984039	4.68273488
Ti	25.66572049	9.24895632	4.78493381
Ti	14.23180302	9.24499658	4.69791402
Ti	29.42330897	9.25234866	4.73245291
Ti	17.97510734	9.22086557	4.76332730
Ti	12.40219197	3.87141771	4.64123053
Ti	27.64107833	3.94275421	4.68322613
Ti	16.20202721	3.99948428	4.67591323
Ti	20.11243240	4.07583206	4.74929314
Ti	12.23573792	1.02025921	5.43451685
Ti	27.56396011	1.03937767	5.47893389
Ti	16.26222238	1.04849112	5.52558444
Ti	19.91444358	1.18594548	5.51760564
Ti	10.50978157	6.26213926	5.53782730
Ti	25.72987204	6.35672750	5.46394038
Ti	14.31799970	6.32294861	5.45627241
Ti	29.62955527	6.33618657	5.51412029
Ti	18.08735059	6.33336767	5.57378638
O	22.06413505	7.39619507	4.01834945
O	8.61048640	2.06552535	3.91301770
O	23.78808666	2.16727739	3.89766169
O	8.50134974	9.66223684	4.98854090
O	23.80763484	9.77353332	4.76896708
O	21.91841059	4.43609670	4.70361694
O	21.87221169	0.65638897	5.71533776
O	8.57378625	5.72083171	5.76389035
O	23.84608216	5.77915394	5.75603561
O	8.84683850	2.85211949	6.30140348
O	23.87349411	2.80628234	6.33572664
O	22.05292257	8.04985515	6.44867681
O	10.37115229	7.28249420	3.86736311
O	25.78781413	7.45905006	3.95907581
O	14.30703541	7.39137725	3.94492743
O	29.59781763	7.27800757	3.91956032
O	18.04797321	7.30213208	3.90831678
O	12.33544500	2.03346868	3.85785558
O	27.69161440	2.09281810	3.89683401
O	16.17133373	2.06908899	3.86958392
O	20.03712483	2.23419234	3.93262475
O	12.29406421	9.60924325	4.86975570
O	27.51287265	9.67945427	4.67372160
O	16.14570213	9.92102208	4.58273882
O	19.89556600	9.62668865	4.94126929
O	10.47993357	4.31211649	4.67909574
O	25.68797878	4.47377090	4.62433734
O	14.36625202	4.43594583	4.80407220
O	29.61142397	4.44133718	4.92125967
O	18.13957290	4.43358638	4.75526048
O	10.47398289	0.47413458	5.73369023
O	25.72413467	0.55216129	5.68510163
O	14.25743357	0.68663784	5.63758075
O	29.45606045	0.43979178	5.87731475
O	18.10241824	0.59723460	5.76781778
O	12.43554548	5.79967669	5.80095202
O	27.61656521	5.77321590	5.81173164
O	16.21393593	5.86914733	5.83320237
O	19.99440700	5.90776382	5.75742716
O	12.47086936	2.74425549	6.27331887
O	27.41766817	2.72784174	6.35458803
O	16.40629042	2.85306885	6.37805953
O	19.89719458	2.97845960	6.32338939
O	10.33405366	7.93265808	6.28521042
O	25.63174742	8.09798820	6.44002359
O	14.20768751	8.11671981	6.22103453
O	29.32474035	7.99652056	6.28416973
O	17.65451488	8.14839041	6.30650497
Ti	6.47145402	19.70874584	4.69850825
Ti	6.60802925	30.11976130	4.79617027
Ti	6.46573057	16.83436347	5.57113238
Ti	6.65878444	27.21470884	5.50603306
Ti	2.72211418	19.72254546	4.75305803
Ti	2.85704341	30.20056565	4.78344228
Ti	0.78816932	14.32211391	4.68802730
Ti	1.06314591	24.92985396	4.92357557
Ti	4.66853168	14.38904516	4.77389875
Ti	4.74862481	25.06411952	4.73834264
Ti	0.91154522	11.45735547	5.56875578
Ti	0.85264926	22.03107939	5.52102488
Ti	4.70189115	11.50021043	5.60347780
Ti	4.76884611	22.09210527	5.50534137
Ti	2.62993000	16.81063077	5.65509672
Ti	2.83688267	27.29614081	5.61311773
O	6.51174808	17.80247952	3.92293204
O	6.65706682	28.33710985	3.91491066
O	6.55870039	14.99155478	4.74429290
O	6.65804927	25.33572797	4.76939636
O	6.54705141	10.98521468	6.03391779
O	6.53389527	21.55527937	5.82315315
O	6.34100328	18.52715856	6.33869599
O	6.69634068	28.94959228	6.28336057
O	2.59366883	17.77961888	3.95927440
O	2.67740948	28.35680880	3.93235137
O	0.90033437	12.50056723	3.96184098
O	0.98085215	23.07913009	3.94402377
O	4.63251914	12.58491429	3.95253971
O	4.80813099	23.17963367	3.92141820
O	0.85057237	20.12329653	4.73121844
O	0.92062529	30.52551708	4.77569126
O	4.64220188	20.22423027	4.68713769
O	4.72732923	30.67877583	4.85751766
O	2.63592416	15.06047906	4.99710432
O	2.86268087	25.42094678	4.64966102
O	2.84990887	11.00544101	5.84323217
O	2.82545442	21.50382584	5.72553661
O	0.85510654	16.67825077	6.38873143
O	0.91379948	26.71840733	5.91986661
O	4.60502386	16.26966858	5.79027493
O	4.70041537	26.84244582	5.73386348
O	0.96373355	13.29284840	6.36166040
O	0.93565274	23.69053875	6.43908059
O	4.82889453	13.30631005	6.45416736
O	4.69035274	23.88917780	6.27390145
O	2.79802961	18.54562346	6.34775366
O	2.93420449	28.96855376	6.42366671
Ti	21.81051097	19.75221697	4.84856359
Ti	21.89148266	30.27299767	4.80430108
Ti	8.39023382	14.43166103	4.77518211
Ti	8.49381554	24.96804620	4.78156484
Ti	23.72688369	14.54284802	4.71144129
Ti	23.77606719	24.90592155	4.70674899
Ti	8.37408601	11.61895599	5.53549780
Ti	8.42385325	22.01422452	5.47309189
Ti	23.74039582	11.67340523	5.51116467
Ti	23.67600541	22.02391311	5.53409600
Ti	21.83072176	16.83651435	5.46815677
Ti	21.81244659	27.39794151	5.54335215
Ti	10.34283367	19.76677672	4.88792696
Ti	10.34322195	30.23690664	4.84064574
Ti	25.75859733	19.71714821	4.78886491
Ti	25.60632381	30.22795504	4.73062813
Ti	14.26200731	19.69387343	4.67898063
Ti	14.30804147	30.28458740	4.72860121
Ti	29.48482094	19.69644253	4.65066100
Ti	29.48425151	30.15230397	4.85031484
Ti	18.08661871	19.78390874	4.82787033
Ti	18.03664058	30.26099002	4.68719760
Ti	12.24870468	14.39991256	4.78009996
Ti	12.28270232	25.02615742	4.67349575
Ti	27.61457458	14.60540331	4.70683049
Ti	27.58751755	24.91639135	4.71700946
Ti	16.04376738	14.53335119	4.73329793
Ti	16.13050758	25.06980015	4.80448036
Ti	19.96378616	14.53010040	4.99146768
Ti	19.95487394	24.97594086	4.85781076
Ti	12.33437823	11.45489453	5.47499623
Ti	12.30412914	22.06290669	5.34350297
Ti	27.56851349	11.64885668	5.48145443
Ti	27.64310272	22.05879977	5.50257815
Ti	16.12229969	11.60798141	5.50319471
Ti	16.22495844	22.11748664	5.48534960
Ti	19.95166303	11.52277643	5.52178903
Ti	19.94734977	22.08757670	5.49466032
Ti	10.37227735	16.71246581	5.33103141
Ti	10.36714666	27.33681883	5.57736727
Ti	25.58415329	16.74933017	5.54538249
Ti	25.64794161	27.31181775	5.48340275
Ti	14.09770590	16.66940987	5.76899876
Ti	14.24525905	27.34895123	5.48968699
Ti	29.52837120	16.86397598	5.58689482
Ti	29.48912137	27.22109667	5.42682646
Ti	17.89651907	16.79731648	5.30759439
Ti	18.08043174	27.45241074	5.54578778
O	22.01700760	17.84177463	3.97529805
O	21.83528937	28.43295892	3.96629525
O	8.36435107	12.59316972	3.95362229
O	8.45064941	23.05333922	3.95967770
O	23.72122372	12.68258204	3.90281028
O	23.66478804	23.09233630	3.93945727
O	8.39258090	20.15548518	4.86487488
O	8.51254087	30.65481913	4.79021161
O	23.73424787	20.06363754	4.89648996
O	23.74108516	30.71722244	4.52887108
O	21.78854454	14.95288913	4.77102098
O	21.77656948	25.45796746	4.70462479
O	21.81869943	11.21151801	5.76226635
O	21.82229234	21.48559653	5.84169419
O	8.40599359	16.35224972	5.78397293
O	8.50102906	26.82825130	5.86296106
O	23.71686564	16.40864667	5.85226534
O	23.75064538	26.86932183	5.49449832
O	8.52521614	13.29672359	6.43348592
O	8.62719329	23.92515289	6.36834612
O	23.72700037	13.40825543	6.34641044
O	23.89631466	23.79143323	6.39026389
O	21.65779522	18.51058676	6.45931855
O	21.99569408	29.08948296	6.38789296
O	10.31527338	17.76477870	3.80881525
O	10.26169399	28.41257177	4.01252044
O	25.61539681	17.88198302	3.97006987
O	25.58776084	28.42432260	3.93154010
O	14.22924577	17.79823970	3.98050865
O	14.28436754	28.37909166	3.86437158
O	29.70670935	17.83585717	3.95183709
O	29.60335751	28.28531972	3.86912303
O	18.12711268	17.99426261	3.96461310
O	17.98899122	28.39381521	4.02040254
O	12.36538363	12.55965464	3.94440084
O	12.41528419	23.14835150	3.83451026
O	27.73090421	12.69129539	3.88386061
O	27.59135304	23.09676088	3.95871413
O	16.32829987	12.70836695	3.92358189
O	16.23994768	23.04170696	3.94545008
O	19.87572633	12.52134192	3.93333048
O	19.92595157	23.10790526	3.90532370
O	12.30797324	20.13426928	4.91611686
O	12.36570515	30.73306246	4.57225313
O	27.63817920	20.28838857	4.62763526
O	27.59365931	30.48171087	4.88939155
O	16.09992114	20.19721956	4.73504456
O	16.21544923	30.68686553	4.83548962
O	19.96116609	20.11364761	4.70271253
O	19.99446904	30.73735986	4.77593666
O	10.36533398	14.77286189	4.73685791
O	10.44694157	25.48530422	4.74530014
O	25.59718667	14.93287666	4.82052419
O	25.65591034	25.26319037	4.80244235
O	14.14974928	14.84980309	4.82131540
O	14.24146312	25.43976281	4.89999414
O	29.54607090	14.99005069	4.87724631
O	29.51773322	25.37751672	4.70287259
O	18.00419775	14.93679771	4.67357952
O	18.06825062	25.54803892	4.73729362
O	10.36872536	11.02766623	5.53060367
O	10.40410625	21.62545468	5.60009988
O	25.70186331	11.04221541	5.65120842
O	25.67540624	21.57554658	5.61762499
O	14.32059318	11.00476685	5.84292042
O	14.21586026	21.70499735	5.55044178
O	29.45990579	10.93139413	5.80267075
O	29.43331421	21.44087970	5.74443877
O	17.94498652	11.00730289	5.87071204
O	18.08096987	21.56748295	5.84078932
O	12.21096222	16.35984108	5.63894158
O	12.30288403	26.85878837	5.68389445
O	27.55406734	16.34626180	5.58338114
O	27.58470495	26.79524034	5.79659775
O	16.09406564	16.45345788	5.54169111
O	16.13156111	26.92696238	5.85953407
O	19.82391492	16.38608315	5.79040811
O	19.94053497	26.80407952	5.91164494
O	12.26672875	13.15283239	6.39334030
O	12.32337481	23.80329593	6.30911818
O	27.35781792	13.35154888	6.25648026
O	27.54205547	23.68770409	6.46895983
O	16.11929434	13.42889924	6.34839258
O	16.02097701	23.80291218	6.35324548
O	19.87266034	13.24201496	6.38090356
O	19.91068178	23.76577841	6.42879571
O	10.19274688	18.50615458	6.28782130
O	10.30069334	29.10312060	6.41061796
O	25.65120520	18.61720618	6.30732410
O	25.62025992	29.00879074	6.43586778
O	14.43283221	18.60134315	6.29296332
O	14.31357147	29.16391550	6.28880343
O	29.31546797	18.65749667	6.30894592
O	29.59205429	28.89429831	6.33982190
O	18.05074335	18.52549579	6.30877453
O	17.94781409	29.22166712	6.35459644
H	15.44804050	14.20523742	7.92700517
H	15.89131046	15.11219776	11.04196385
H	13.19938047	18.03366353	9.26285511
O	14.23516949	15.99247214	7.54442001
O	15.41101813	14.62422789	8.83432722
C	14.78301939	15.73407756	8.72450176
C	14.64042137	16.56031753	9.93064024
C	15.32674616	16.05540031	11.08234980
C	13.91744829	17.73384074	10.07344675
N	13.44179741	19.22315731	15.73516243
N	15.81204589	22.33103057	17.16111571
N	15.76160372	20.73422255	14.69817158
N	13.35762751	20.84053579	18.15004518
C	20.75703681	23.79082822	14.31913865
C	14.66816599	24.46237498	22.61579466
C	8.21888038	17.90888113	18.05323453
C	18.38492653	23.49689547	14.61795545
C	14.31952879	23.82171643	20.24672689
C	10.60294676	18.24237029	18.04055235
C	19.23182564	25.11994204	13.02809053
C	13.11335647	25.74734727	21.18876663
C	9.61737870	16.40714257	19.34920884
C	14.62666338	18.85016198	13.59898503
C	17.24501321	22.67494563	15.20343584
C	14.47231183	22.79325408	19.19403862
C	11.82992685	19.02588698	17.55825792
C	15.63364432	19.82518567	13.65299602
C	16.72346842	21.62698874	14.44361096
C	13.48581503	21.77146189	19.12061438
C	12.35683746	19.96511702	18.49121268
C	16.59457345	20.19294026	12.69165311
C	17.25605329	21.31928031	13.11479925
C	12.59991788	21.39201713	20.19125968
C	11.89836458	20.25915567	19.80218110
C	13.66117194	18.57152579	14.55469869
C	16.79513132	22.96731203	16.47693980
C	15.53813232	23.04735703	18.31984387
C	12.31128517	18.64973355	16.33001588
C	12.72555025	17.47771111	14.46825623
C	17.17303874	24.14584680	17.19371772
C	16.36267212	24.20691059	18.31433644
C	11.86049534	17.60778505	15.50636429
H	12.64706301	16.69748351	13.68708159
H	18.00808923	24.82658737	16.92631889
H	16.50347156	24.92708243	19.13535340
H	10.97164200	16.96813529	15.63474331
H	16.85617936	19.58282711	11.78640356
H	18.09898311	21.82486273	12.62601302
H	12.44263687	21.84875088	21.19702398
H	11.16346331	19.74491198	20.43073733
H	19.04282065	25.94103059	12.26242032
H	12.31891060	26.48694151	21.03849873
H	9.71863746	15.56378819	20.06482981
H	21.81523045	23.56103767	14.46648994
H	15.07772042	24.20798598	23.52328605
H	7.27874545	18.31168824	17.71852712
H	15.23007160	20.75823880	15.60493235
H	13.87308592	20.94626275	17.24943541
C	21.76936450	25.16643816	12.45053846
H	22.73896829	25.11995334	13.05441920
H	21.56168237	26.21161334	12.04508663
H	21.89557699	24.35566737	11.67724676
C	19.82581439	22.11599334	16.07606451
H	19.19278202	21.28719719	15.73078463
H	19.36705640	22.50505745	17.00563424
H	20.83290355	21.80234641	16.47965715
C	16.74045168	24.59747153	13.10937231
H	16.64935102	24.55379739	11.99859749
H	16.31710884	25.55683185	13.37234181
H	16.04046195	23.88458165	13.44974403
C	12.16705372	16.71551075	19.27783040
H	12.13378518	15.94227755	20.07120049
H	12.67623958	17.62821629	19.65773840
H	12.76180267	16.39220198	18.37903431
C	8.99256602	20.02340145	16.94728872
H	8.35344450	19.89440969	16.06475580
H	9.92011259	20.50463464	16.54083526
H	8.47084943	20.69104592	17.57816089
C	7.11699343	16.05922986	19.33344652
H	6.28443464	16.50684151	18.77954172
H	6.87604797	16.20616485	20.41844693
H	7.29725696	15.01838185	19.12633839
C	12.52061690	25.00505961	18.86136380
H	12.87448933	25.89720724	18.38396825
H	11.47343470	25.10336388	19.02621538
H	12.63486956	24.18470045	18.19143608
C	15.88659033	22.52729057	21.75049348
H	16.96575735	22.80086428	21.44260334
H	15.68490803	21.63096919	21.12757099
H	15.91605457	22.21995058	22.80192255
C	13.34972368	26.27992971	23.74361225
H	12.86141162	25.58735494	24.45039483
H	12.61101760	26.99454636	23.54728845
H	14.28684615	26.74173286	24.12125290
C	20.55760400	24.75041644	13.31949420
C	19.69824390	23.21067704	15.02693607
C	18.13392343	24.48988533	13.64786019
C	13.36069928	24.87988321	20.11290439
C	14.96903442	23.67490194	21.50231968
C	13.77480029	25.53258083	22.45459280
C	10.78423768	17.11579615	18.88454037
C	9.33214566	18.67865160	17.61867403
C	8.35524933	16.76186470	18.90113018
H	15.73641549	16.42908319	13.21839379
H	13.17199725	19.30998673	11.34613645
C	14.57474786	18.01263644	12.32133497
C	15.26779169	16.77441988	12.25959888
C	13.88878974	18.50878122	11.24522809

Ti O H C N 0
6-31G*
****

