%chk=f00019985.chk
%mem=24GB
%nproc=12
#p b3lyp/6-31G*

title

0 1
Ti	2.81187400	0.19704000	1.10336000
Ti	0.90594400	5.44057000	1.10336000
Ti	4.71781400	5.44057000	1.10336000
Ti	0.90594400	2.47241000	1.99114000
Ti	4.71781400	2.47241000	1.99114000
Ti	2.81187400	7.71594000	1.99115000
O	2.81187400	8.81302000	0.37332000
O	0.90594400	3.56949000	0.37332000
O	4.71781400	3.56949000	0.37332000
O	0.90594400	0.60134000	1.26110000
O	4.71781400	0.60134000	1.26110000
O	2.81187400	5.84486000	1.26111000
O	2.81187400	2.06812000	1.83340000
O	0.90594400	7.31164000	1.83340000
O	4.71781400	7.31164000	1.83340000
O	0.90594400	4.34349000	2.72118000
O	4.71781400	4.34349000	2.72118000
O	2.81187400	9.58701000	2.72118000
Ti	6.62374588	0.19704000	1.10336000
Ti	21.87123776	0.19704000	1.10336000
Ti	8.52968588	5.44057000	1.10336000
Ti	23.77717776	5.44057000	1.10336000
Ti	8.52968588	2.47241000	1.99114000
Ti	23.77717776	2.47241000	1.99114000
Ti	6.62374588	7.71594000	1.99115000
Ti	21.87123776	7.71594000	1.99115000
Ti	10.43561588	0.19704000	1.10336000
Ti	25.68310776	0.19704000	1.10336000
Ti	14.24749588	0.19704000	1.10336000
Ti	29.49498776	0.19704000	1.10336000
Ti	18.05936588	0.19704000	1.10336000
Ti	12.34155588	5.44057000	1.10336000
Ti	27.58904776	5.44057000	1.10336000
Ti	16.15343588	5.44057000	1.10336000
Ti	19.96530588	5.44057000	1.10336000
Ti	12.34155588	2.47241000	1.99114000
Ti	27.58904776	2.47241000	1.99114000
Ti	16.15343588	2.47241000	1.99114000
Ti	19.96530588	2.47241000	1.99114000
Ti	10.43561588	7.71594000	1.99115000
Ti	25.68310776	7.71594000	1.99115000
Ti	14.24749588	7.71594000	1.99115000
Ti	29.49498776	7.71594000	1.99115000
Ti	18.05936588	7.71594000	1.99115000
O	6.62374588	8.81302000	0.37332000
O	21.87123776	8.81302000	0.37332000
O	8.52968588	3.56949000	0.37332000
O	23.77717776	3.56949000	0.37332000
O	8.52968588	0.60134000	1.26110000
O	23.77717776	0.60134000	1.26110000
O	6.62374588	5.84486000	1.26111000
O	21.87123776	5.84486000	1.26111000
O	6.62374588	2.06812000	1.83340000
O	21.87123776	2.06812000	1.83340000
O	8.52968588	7.31164000	1.83340000
O	23.77717776	7.31164000	1.83340000
O	8.52968588	4.34349000	2.72118000
O	23.77717776	4.34349000	2.72118000
O	6.62374588	9.58701000	2.72118000
O	21.87123776	9.58701000	2.72118000
O	10.43561588	8.81302000	0.37332000
O	25.68310776	8.81302000	0.37332000
O	14.24749588	8.81302000	0.37332000
O	29.49498776	8.81302000	0.37332000
O	18.05936588	8.81302000	0.37332000
O	12.34155588	3.56949000	0.37332000
O	27.58904776	3.56949000	0.37332000
O	16.15343588	3.56949000	0.37332000
O	19.96530588	3.56949000	0.37332000
O	12.34155588	0.60134000	1.26110000
O	27.58904776	0.60134000	1.26110000
O	16.15343588	0.60134000	1.26110000
O	19.96530588	0.60134000	1.26110000
O	10.43561588	5.84486000	1.26111000
O	25.68310776	5.84486000	1.26111000
O	14.24749588	5.84486000	1.26111000
O	29.49498776	5.84486000	1.26111000
O	18.05936588	5.84486000	1.26111000
O	10.43561588	2.06812000	1.83340000
O	25.68310776	2.06812000	1.83340000
O	14.24749588	2.06812000	1.83340000
O	29.49498776	2.06812000	1.83340000
O	18.05936588	2.06812000	1.83340000
O	12.34155588	7.31164000	1.83340000
O	27.58904776	7.31164000	1.83340000
O	16.15343588	7.31164000	1.83340000
O	19.96530588	7.31164000	1.83340000
O	12.34155588	4.34349000	2.72118000
O	27.58904776	4.34349000	2.72118000
O	16.15343588	4.34349000	2.72118000
O	19.96530588	4.34349000	2.72118000
O	10.43561588	9.58701000	2.72118000
O	25.68310776	9.58701000	2.72118000
O	14.24749588	9.58701000	2.72118000
O	29.49498776	9.58701000	2.72118000
O	18.05936588	9.58701000	2.72118000
Ti	2.81187400	10.68408607	1.10336000
Ti	2.81187400	21.17113214	1.10336000
Ti	0.90594400	15.92761607	1.10336000
Ti	0.90594400	26.41466214	1.10336000
Ti	4.71781400	15.92761607	1.10336000
Ti	4.71781400	26.41466214	1.10336000
Ti	0.90594400	12.95945607	1.99114000
Ti	0.90594400	23.44650214	1.99114000
Ti	4.71781400	12.95945607	1.99114000
Ti	4.71781400	23.44650214	1.99114000
Ti	2.81187400	18.20298607	1.99115000
Ti	2.81187400	28.69003214	1.99115000
O	2.81187400	19.30006607	0.37332000
O	2.81187400	29.78711214	0.37332000
O	0.90594400	14.05653607	0.37332000
O	0.90594400	24.54358214	0.37332000
O	4.71781400	14.05653607	0.37332000
O	4.71781400	24.54358214	0.37332000
O	0.90594400	11.08838607	1.26110000
O	0.90594400	21.57543214	1.26110000
O	4.71781400	11.08838607	1.26110000
O	4.71781400	21.57543214	1.26110000
O	2.81187400	16.33190607	1.26111000
O	2.81187400	26.81895214	1.26111000
O	2.81187400	12.55516607	1.83340000
O	2.81187400	23.04221214	1.83340000
O	0.90594400	17.79868607	1.83340000
O	0.90594400	28.28573214	1.83340000
O	4.71781400	17.79868607	1.83340000
O	4.71781400	28.28573214	1.83340000
O	0.90594400	14.83053607	2.72118000
O	0.90594400	25.31758214	2.72118000
O	4.71781400	14.83053607	2.72118000
O	4.71781400	25.31758214	2.72118000
O	2.81187400	20.07405607	2.72118000
O	2.81187400	30.56110214	2.72118000
Ti	6.62374588	10.68408607	1.10336000
Ti	6.62374588	21.17113214	1.10336000
Ti	21.87123776	10.68408607	1.10336000
Ti	21.87123776	21.17113214	1.10336000
Ti	8.52968588	15.92761607	1.10336000
Ti	8.52968588	26.41466214	1.10336000
Ti	23.77717776	15.92761607	1.10336000
Ti	23.77717776	26.41466214	1.10336000
Ti	8.52968588	12.95945607	1.99114000
Ti	8.52968588	23.44650214	1.99114000
Ti	23.77717776	12.95945607	1.99114000
Ti	23.77717776	23.44650214	1.99114000
Ti	6.62374588	18.20298607	1.99115000
Ti	6.62374588	28.69003214	1.99115000
Ti	21.87123776	18.20298607	1.99115000
Ti	21.87123776	28.69003214	1.99115000
Ti	10.43561588	10.68408607	1.10336000
Ti	10.43561588	21.17113214	1.10336000
Ti	25.68310776	10.68408607	1.10336000
Ti	25.68310776	21.17113214	1.10336000
Ti	14.24749588	10.68408607	1.10336000
Ti	14.24749588	21.17113214	1.10336000
Ti	29.49498776	10.68408607	1.10336000
Ti	29.49498776	21.17113214	1.10336000
Ti	18.05936588	10.68408607	1.10336000
Ti	18.05936588	21.17113214	1.10336000
Ti	12.34155588	15.92761607	1.10336000
Ti	12.34155588	26.41466214	1.10336000
Ti	27.58904776	15.92761607	1.10336000
Ti	27.58904776	26.41466214	1.10336000
Ti	16.15343588	15.92761607	1.10336000
Ti	16.15343588	26.41466214	1.10336000
Ti	19.96530588	15.92761607	1.10336000
Ti	19.96530588	26.41466214	1.10336000
Ti	12.34155588	12.95945607	1.99114000
Ti	12.34155588	23.44650214	1.99114000
Ti	27.58904776	12.95945607	1.99114000
Ti	27.58904776	23.44650214	1.99114000
Ti	16.15343588	12.95945607	1.99114000
Ti	16.15343588	23.44650214	1.99114000
Ti	19.96530588	12.95945607	1.99114000
Ti	19.96530588	23.44650214	1.99114000
Ti	10.43561588	18.20298607	1.99115000
Ti	10.43561588	28.69003214	1.99115000
Ti	25.68310776	18.20298607	1.99115000
Ti	25.68310776	28.69003214	1.99115000
Ti	14.24749588	18.20298607	1.99115000
Ti	14.24749588	28.69003214	1.99115000
Ti	29.49498776	18.20298607	1.99115000
Ti	29.49498776	28.69003214	1.99115000
Ti	18.05936588	18.20298607	1.99115000
Ti	18.05936588	28.69003214	1.99115000
O	6.62374588	19.30006607	0.37332000
O	6.62374588	29.78711214	0.37332000
O	21.87123776	19.30006607	0.37332000
O	21.87123776	29.78711214	0.37332000
O	8.52968588	14.05653607	0.37332000
O	8.52968588	24.54358214	0.37332000
O	23.77717776	14.05653607	0.37332000
O	23.77717776	24.54358214	0.37332000
O	8.52968588	11.08838607	1.26110000
O	8.52968588	21.57543214	1.26110000
O	23.77717776	11.08838607	1.26110000
O	23.77717776	21.57543214	1.26110000
O	6.62374588	16.33190607	1.26111000
O	6.62374588	26.81895214	1.26111000
O	21.87123776	16.33190607	1.26111000
O	21.87123776	26.81895214	1.26111000
O	6.62374588	12.55516607	1.83340000
O	6.62374588	23.04221214	1.83340000
O	21.87123776	12.55516607	1.83340000
O	21.87123776	23.04221214	1.83340000
O	8.52968588	17.79868607	1.83340000
O	8.52968588	28.28573214	1.83340000
O	23.77717776	17.79868607	1.83340000
O	23.77717776	28.28573214	1.83340000
O	8.52968588	14.83053607	2.72118000
O	8.52968588	25.31758214	2.72118000
O	23.77717776	14.83053607	2.72118000
O	23.77717776	25.31758214	2.72118000
O	6.62374588	20.07405607	2.72118000
O	6.62374588	30.56110214	2.72118000
O	21.87123776	20.07405607	2.72118000
O	21.87123776	30.56110214	2.72118000
O	10.43561588	19.30006607	0.37332000
O	10.43561588	29.78711214	0.37332000
O	25.68310776	19.30006607	0.37332000
O	25.68310776	29.78711214	0.37332000
O	14.24749588	19.30006607	0.37332000
O	14.24749588	29.78711214	0.37332000
O	29.49498776	19.30006607	0.37332000
O	29.49498776	29.78711214	0.37332000
O	18.05936588	19.30006607	0.37332000
O	18.05936588	29.78711214	0.37332000
O	12.34155588	14.05653607	0.37332000
O	12.34155588	24.54358214	0.37332000
O	27.58904776	14.05653607	0.37332000
O	27.58904776	24.54358214	0.37332000
O	16.15343588	14.05653607	0.37332000
O	16.15343588	24.54358214	0.37332000
O	19.96530588	14.05653607	0.37332000
O	19.96530588	24.54358214	0.37332000
O	12.34155588	11.08838607	1.26110000
O	12.34155588	21.57543214	1.26110000
O	27.58904776	11.08838607	1.26110000
O	27.58904776	21.57543214	1.26110000
O	16.15343588	11.08838607	1.26110000
O	16.15343588	21.57543214	1.26110000
O	19.96530588	11.08838607	1.26110000
O	19.96530588	21.57543214	1.26110000
O	10.43561588	16.33190607	1.26111000
O	10.43561588	26.81895214	1.26111000
O	25.68310776	16.33190607	1.26111000
O	25.68310776	26.81895214	1.26111000
O	14.24749588	16.33190607	1.26111000
O	14.24749588	26.81895214	1.26111000
O	29.49498776	16.33190607	1.26111000
O	29.49498776	26.81895214	1.26111000
O	18.05936588	16.33190607	1.26111000
O	18.05936588	26.81895214	1.26111000
O	10.43561588	12.55516607	1.83340000
O	10.43561588	23.04221214	1.83340000
O	25.68310776	12.55516607	1.83340000
O	25.68310776	23.04221214	1.83340000
O	14.24749588	12.55516607	1.83340000
O	14.24749588	23.04221214	1.83340000
O	29.49498776	12.55516607	1.83340000
O	29.49498776	23.04221214	1.83340000
O	18.05936588	12.55516607	1.83340000
O	18.05936588	23.04221214	1.83340000
O	12.34155588	17.79868607	1.83340000
O	12.34155588	28.28573214	1.83340000
O	27.58904776	17.79868607	1.83340000
O	27.58904776	28.28573214	1.83340000
O	16.15343588	17.79868607	1.83340000
O	16.15343588	28.28573214	1.83340000
O	19.96530588	17.79868607	1.83340000
O	19.96530588	28.28573214	1.83340000
O	12.34155588	14.83053607	2.72118000
O	12.34155588	25.31758214	2.72118000
O	27.58904776	14.83053607	2.72118000
O	27.58904776	25.31758214	2.72118000
O	16.15343588	14.83053607	2.72118000
O	16.15343588	25.31758214	2.72118000
O	19.96530588	14.83053607	2.72118000
O	19.96530588	25.31758214	2.72118000
O	10.43561588	20.07405607	2.72118000
O	10.43561588	30.56110214	2.72118000
O	25.68310776	20.07405607	2.72118000
O	25.68310776	30.56110214	2.72118000
O	14.24749588	20.07405607	2.72118000
O	14.24749588	30.56110214	2.72118000
O	29.49498776	20.07405607	2.72118000
O	29.49498776	30.56110214	2.72118000
O	18.05936588	20.07405607	2.72118000
O	18.05936588	30.56110214	2.72118000
Ti	6.60951917	9.19741449	4.78603865
Ti	6.64436295	6.33927921	5.60847371
Ti	2.81077490	9.19913134	4.69401842
Ti	0.90815384	3.94451218	4.80490412
Ti	4.68052934	3.95210080	4.81370616
Ti	0.94652081	1.08014930	5.57414324
Ti	4.72596417	1.05891638	5.57972530
Ti	2.89353744	6.33539404	5.68643143
O	6.63413896	7.38257501	3.99145039
O	6.51334541	4.49083502	4.70148111
O	6.66267975	0.57661992	5.75879257
O	6.34533423	8.01588093	6.34557455
O	2.83903258	7.23765773	3.95889874
O	1.12014214	2.12792722	4.00928743
O	4.61808894	2.13936441	4.06469987
O	0.91946995	9.62904911	4.68848781
O	4.71278401	9.75426990	4.79657175
O	2.80435594	4.48792600	4.86727783
O	2.82155905	0.47463755	5.73038452
O	0.95078760	5.86960245	5.88565611
O	4.70537383	5.76297584	6.04718301
O	0.87169579	2.93255774	6.44952116
O	4.59588285	2.74598601	6.50379703
O	2.71690179	8.11148220	6.39334958
Ti	21.90507479	9.13712283	4.76166882
Ti	8.47181802	4.10310367	4.73792917
Ti	23.93131517	3.97447689	4.74106935
Ti	8.48571314	1.14810395	5.48394321
Ti	23.74074150	1.09604951	5.52348890
Ti	22.02599463	6.22864767	5.46489392
Ti	10.35520144	9.29588622	4.72433149
Ti	25.68380673	9.17353969	4.69770089
Ti	14.18871753	9.19109534	4.75394093
Ti	29.55173360	9.23215369	4.67731228
Ti	17.99993907	9.19361747	4.70663637
Ti	12.29685102	4.09891853	4.73208055
Ti	27.69326007	3.98642969	4.75627682
Ti	16.17978837	3.98897699	4.67033851
Ti	19.98447878	3.93233520	4.73110332
Ti	12.35299331	1.15745635	5.49095301
Ti	27.57817847	1.06116216	5.37100161
Ti	16.12634361	1.08169849	5.52424014
Ti	19.84126060	1.00189877	5.47280180
Ti	10.48657998	6.38557870	5.52467190
Ti	25.77973668	6.28492088	5.53479733
Ti	14.27775504	6.26822244	5.46711075
Ti	29.47417058	6.34362960	5.49908541
Ti	18.19004534	6.29147374	5.50740890
O	21.93138552	7.32132371	3.93019262
O	8.54808602	2.13953445	3.92974102
O	23.68925033	2.06673213	3.90067293
O	8.50038324	9.57944469	4.80234266
O	23.81513837	9.57895792	4.69073817
O	21.94771123	4.33145465	4.90256538
O	21.84077127	0.57417801	5.55712399
O	8.47768878	5.88291598	5.69557695
O	23.90644638	5.74412419	5.66857229
O	8.53369912	2.89659643	6.34753490
O	24.05869762	2.91849785	6.39779213
O	22.08938176	7.98421365	6.28845003
O	10.50252967	7.35175963	4.00033905
O	25.67645531	7.27874132	3.90011481
O	14.05917042	7.30961698	3.90724409
O	29.59206114	7.35524136	3.90379529
O	18.04985558	7.28894614	3.94413897
O	12.51373818	2.20974831	3.94335771
O	27.68323412	2.02440749	3.85642463
O	16.14515366	2.12139482	3.91025118
O	19.94385027	2.08581603	3.85308694
O	12.27776275	9.68076038	4.80409320
O	27.61673089	9.67852926	4.79507893
O	16.13264934	9.61005322	4.74412638
O	20.00668588	9.40915242	4.84971796
O	10.42064035	4.51723198	4.91558908
O	25.79013390	4.42273016	4.79447856
O	14.21957765	4.47305562	4.78588932
O	29.54787970	4.54064890	4.75191688
O	18.15011846	4.43861593	4.73173675
O	10.39965959	0.75764677	5.53206658
O	25.62897087	0.63270544	5.44786335
O	14.25420538	0.96027560	6.16496273
O	29.48608426	0.62755240	5.78126478
O	17.94977519	0.62616675	5.79543012
O	12.39003377	5.93824528	5.86070172
O	27.66516984	5.89277804	5.79906778
O	16.24136824	5.91511501	5.76504804
O	20.10429059	5.85861615	5.72336146
O	12.30999707	2.94737985	6.34373807
O	27.66507573	2.76620811	6.27810291
O	16.29246645	2.89696698	6.31941208
O	19.84354641	2.76554159	6.36697469
O	10.36914827	8.15847605	6.41957957
O	25.61255928	8.03008674	6.36165517
O	14.32841772	8.04387589	6.38799173
O	29.55959103	8.09335025	6.34463024
O	18.01620366	8.12245813	6.35610424
Ti	6.68360048	19.49212067	4.70438058
Ti	6.64558722	30.21289270	4.83767420
Ti	6.49516809	16.66514054	5.55094417
Ti	6.62218790	27.33226495	5.50292900
Ti	2.98849966	19.79111500	4.69486240
Ti	2.81081761	30.29427596	4.73992845
Ti	0.90960781	14.28206883	4.68970275
Ti	0.92278907	25.00435071	4.75260789
Ti	4.53558312	14.42872315	4.77620443
Ti	4.70084608	24.98642460	4.78163359
Ti	0.89305723	11.42836143	5.56251431
Ti	0.94114066	22.02240252	5.51658384
Ti	4.55838885	11.55067016	5.62343405
Ti	4.70922505	22.12155439	5.57290508
Ti	2.75277276	16.96592878	5.56481508
Ti	2.76927539	27.37310023	5.44477838
O	6.63417328	17.65825637	3.92032969
O	6.58610099	28.36715190	3.95274563
O	6.48365090	14.81152078	4.87914191
O	6.61102107	25.37478144	4.88115237
O	6.56957270	11.12764438	5.71903638
O	6.60730927	21.88828485	6.15226026
O	6.49109806	18.40134566	6.28367099
O	6.73761616	29.01445430	6.43609766
O	2.81989663	17.94751832	3.96303264
O	2.76284996	28.35983745	3.88018238
O	0.89511274	12.48439276	3.95968647
O	1.01838387	23.11624882	3.96379157
O	4.54204712	12.58566443	4.01439096
O	4.64961764	23.15678396	3.95474432
O	0.94864194	20.05482502	4.82667956
O	0.85856386	30.69684450	4.80308495
O	4.86726228	20.24909529	4.81867359
O	4.78311445	30.56715864	4.95203264
O	2.66485749	15.06086740	4.94267282
O	2.81272516	25.46680000	4.73441525
O	2.70027308	11.00639584	5.92397427
O	2.80161275	21.52257000	5.65667466
O	0.99046524	16.81691568	6.13899911
O	0.87244803	26.70739412	5.86282624
O	4.64711935	16.23775935	5.80560308
O	4.66916942	26.93710615	5.62679289
O	0.93689202	13.17899097	6.36216384
O	0.98695061	23.80065682	6.19425924
O	4.65530674	13.26752222	6.43701131
O	4.68911160	23.90058859	6.35477890
O	3.04295787	18.73668720	6.38135379
O	2.60749100	29.11057546	6.31987990
Ti	21.91495085	19.70239731	4.91208708
Ti	21.80215383	30.20271278	4.77768108
Ti	8.35849267	14.44398812	4.78560946
Ti	8.55926949	25.04418347	4.81056974
Ti	23.69401920	14.33923704	4.66175793
Ti	23.72685574	25.07257271	4.77589735
Ti	8.50640587	11.60750912	5.52244158
Ti	8.43183262	22.12268156	5.65515824
Ti	23.71519334	11.44565993	5.46756399
Ti	23.81262869	22.10974663	5.50929974
Ti	21.77931582	16.73042087	5.45166522
Ti	21.82875262	27.31550694	5.57396034
Ti	10.28411976	19.64779979	4.71664734
Ti	10.40752196	30.25941722	4.73595307
Ti	25.80870541	19.63463880	4.68663279
Ti	25.62224206	30.22085504	4.68267466
Ti	14.15698096	19.73439294	4.80083516
Ti	14.21657927	30.00028260	4.70218820
Ti	29.50328516	19.65508365	4.80679818
Ti	29.47786506	30.16864035	4.84942940
Ti	18.05919725	19.74219582	4.74009456
Ti	18.01352628	30.23179508	4.75396531
Ti	12.30312857	14.50986075	4.59531716
Ti	12.22000220	24.91717471	4.68983617
Ti	27.68290204	14.40781331	4.82907488
Ti	27.59680849	25.04029923	4.78327534
Ti	16.18666198	14.53012785	4.68412358
Ti	16.10579813	24.93939850	4.58860460
Ti	19.92586625	14.31347498	4.77798524
Ti	19.83267078	24.92759548	4.72668736
Ti	12.52210839	11.66358600	5.53421610
Ti	12.23337566	21.98923829	5.54858521
Ti	27.53868483	11.47357581	5.56733154
Ti	27.66600260	22.08325859	5.47851448
Ti	16.22532865	11.59939826	5.51437998
Ti	16.13573140	22.04646706	5.42103559
Ti	20.06526190	11.41720483	5.55655038
Ti	19.95139350	21.99629383	5.44848342
Ti	10.34192646	16.75574339	5.67805772
Ti	10.48868401	27.33815392	5.52387380
Ti	25.73805879	16.73953349	5.49909511
Ti	25.66089266	27.38563319	5.62390807
Ti	14.17487363	16.61373777	5.69766394
Ti	14.15072159	27.10910521	5.41854599
Ti	29.56359197	16.79216112	5.74596440
Ti	29.52437107	27.23065994	5.50661396
Ti	18.04385254	16.78359923	5.43055357
Ti	17.95950591	27.30607075	5.38668929
O	21.79243647	17.83202309	3.90764690
O	21.74133022	28.38796402	3.97807730
O	8.54731755	12.62503921	3.92341274
O	8.49353146	22.93931330	3.93640104
O	23.64640213	12.49653007	3.98700681
O	23.70444318	23.20511041	3.92399253
O	8.38384908	20.08433802	5.06141961
O	8.58737652	30.70693916	4.72247893
O	23.80299460	19.98235365	4.84299131
O	23.71816560	30.46542864	4.84503135
O	21.88073412	14.80634317	4.87201579
O	21.78276245	25.40176413	4.73121653
O	21.90940871	10.91522286	5.79187195
O	21.88606041	21.49890323	5.80304099
O	8.43099831	16.24906720	5.95328560
O	8.53106154	26.88865513	5.77849841
O	23.76443536	16.41918023	5.61208613
O	23.76313493	26.90558835	5.78316704
O	8.26918916	13.26976124	6.39315565
O	8.76697218	23.80745289	6.40653666
O	23.71943495	13.20352044	6.43062122
O	23.80420157	23.80649186	6.41433003
O	21.74530630	18.51324084	6.30063953
O	21.59217854	29.13738525	6.44924694
O	10.39976163	17.74897269	4.06031595
O	10.48227490	28.36822106	3.91788214
O	25.78934685	17.74188698	3.91104196
O	25.82635951	28.35086385	3.93609434
O	14.22461735	17.78820968	3.96371330
O	14.13036150	28.23209799	3.89586491
O	29.52382473	17.80417823	4.07031137
O	29.72480636	28.38414672	3.98054503
O	17.89770176	17.89066366	3.90443611
O	17.95327855	28.28680228	3.84401603
O	12.59505546	12.58795922	3.95100816
O	12.19353507	22.97356909	3.93701430
O	27.62198669	12.55413369	4.04038643
O	27.81410111	23.01333928	3.87935137
O	16.11380795	12.65519664	3.92393850
O	16.03081252	23.06275416	3.85642658
O	19.69274702	12.43472826	3.98256802
O	19.88086240	23.04485156	3.96632744
O	12.28115615	20.05509432	4.85941142
O	12.43418773	30.67756533	4.88007459
O	27.65690702	20.05304533	4.79884265
O	27.60267586	30.60224858	4.73960298
O	16.06818038	20.19117376	4.85904076
O	16.00571079	30.68403162	4.81152263
O	20.00116992	20.14492187	4.62489130
O	19.94719177	30.63480807	4.81017095
O	10.29826013	14.93993434	4.73499872
O	10.39808360	25.52960730	4.75297870
O	25.61909673	14.74353847	4.98595618
O	25.64423767	25.42897861	4.90139546
O	14.19371109	14.80466975	4.67025625
O	14.15908121	25.34916719	4.84129164
O	29.63455544	14.87436105	4.94739282
O	29.54247074	25.45969008	4.61298944
O	18.05677930	14.89033613	4.67025753
O	17.97782722	25.36854295	4.72871478
O	10.44784578	11.16966026	5.67564826
O	10.37245546	21.43879490	5.70715301
O	25.69813246	10.97200475	5.88691065
O	25.70561831	21.57091439	5.51784243
O	14.29926337	11.05825516	5.75522042
O	14.12228236	21.51910390	5.75821781
O	29.45282455	10.91855242	5.99013061
O	29.55188226	21.53290807	5.88673238
O	18.07572969	10.92782157	5.75152125
O	18.04805601	21.48930504	5.76741805
O	12.25362429	16.27570392	5.65969027
O	12.34180579	26.62629753	5.78197622
O	27.65254501	16.22164075	5.71366336
O	27.60275304	26.88064304	5.69357313
O	16.18705065	16.28965446	5.70483941
O	16.08980597	26.83254843	5.62301704
O	19.96667164	16.14179047	5.76420441
O	19.90380497	26.80053655	5.67694095
O	12.06692808	13.36435983	6.24449087
O	12.17939434	23.81524649	6.29999668
O	27.65224295	13.31749490	6.55651768
O	27.63665711	23.84212202	6.29261620
O	16.04657583	13.44624894	6.34437042
O	16.29907466	23.71687159	6.36097917
O	20.00560301	13.15586870	6.28284194
O	19.94654740	23.84697883	6.27252329
O	10.47230688	18.48359298	6.52441968
O	10.31633820	29.11188339	6.33721397
O	25.86810045	18.54160773	6.33748204
O	25.82387421	29.10078435	6.37973501
O	14.08033810	18.50764297	6.42081230
O	14.25245477	28.97353158	6.40257335
O	29.30095153	18.55436962	6.45314723
O	29.39996136	29.02418429	6.39349653
O	18.13211794	18.54667975	6.34322705
O	17.93290328	28.98291923	6.28121316
H	12.67205494	14.44747994	7.73380356
H	12.63414636	15.32205709	10.90994656
H	15.41896498	17.87503894	8.94743844
O	14.26091512	15.98051520	7.49218549
O	12.78900964	14.86327475	8.64939064
C	13.69756103	15.74105805	8.65988793
C	14.02117620	16.47797580	9.86480085
C	13.29749766	16.19730028	11.03519196
C	14.90272616	17.56947983	9.81791967
N	13.01530635	19.89492357	15.25084098
N	15.92633442	22.07827907	17.27143898
N	15.78326398	20.14086445	14.89867337
N	13.01990030	21.90907545	17.57376640
C	21.52282623	20.41333713	16.17935641
C	14.98368241	24.66981961	22.57757516
C	7.28467468	21.15440759	17.13927838
C	19.26144770	21.28125569	15.76200365
C	14.67478762	24.14870158	20.20049253
C	9.57384572	20.37065736	17.04983614
C	21.26395006	22.49864575	15.10591010
C	14.97914705	26.47510631	20.95766941
C	7.83933729	18.79078259	17.44841012
C	14.24585945	18.87965542	13.33403452
C	17.77849927	21.18360580	15.92974988
C	14.59627181	23.18436368	19.06236903
C	11.04511339	20.64115884	16.76646703
C	15.52044693	19.29721622	13.86165039
C	17.11439255	20.34546690	15.01141522
C	13.34476209	22.56886818	18.72263256
C	11.76389985	21.37544237	17.71512719
C	16.75645846	18.83943952	13.31532313
C	17.75352815	19.48747957	14.04831690
C	12.18121313	22.63538214	19.56961297
C	11.26488633	21.81703550	18.98989727
C	13.06205631	19.16098643	14.05846979
C	17.25211006	22.00542783	16.98363089
C	15.77594367	22.97160500	18.34278303
C	11.62233706	20.03137059	15.62390024
C	11.67885037	18.93903314	13.65866525
C	18.02570491	22.87755285	17.89514716
C	17.08101470	23.44077708	18.74950536
C	10.82523418	19.42529709	14.65765041
H	11.35914154	18.33827548	12.75086210
H	19.09052437	22.92050367	18.07891645
H	17.19485050	24.11349381	19.62368898
H	9.76148302	19.49256199	14.62649101
H	16.87933354	18.05810153	12.51974320
H	18.78851557	19.40206786	13.87627756
H	12.20247058	23.04628456	20.60279160
H	10.27280051	21.62746340	19.34824929
H	21.69982483	23.32752270	14.52433444
H	15.15976240	27.51323769	20.74844681
H	7.45897494	17.78179687	17.56484801
H	22.03753782	19.51209028	16.55107887
H	15.06144033	24.37209813	23.62349136
H	6.50243648	21.89396060	17.15761924
H	15.08716465	20.62972997	15.44116684
H	13.74524725	21.78519950	16.85346098
C	23.59703514	21.41735332	15.13236298
H	23.89694101	20.99761316	14.16340761
H	24.22207124	20.84588906	15.89202976
H	23.93665672	22.42752515	15.21206165
C	19.42452904	19.38290768	17.20998351
H	20.10249523	18.64664938	17.64762090
H	18.74246890	18.73356743	16.62187807
H	18.92022705	19.83313573	18.06066040
C	19.04395160	23.43824291	14.41061149
H	19.63315977	24.38679328	14.30323772
H	18.07283789	23.61946377	14.93933794
H	18.78204304	23.17423435	13.35861721
C	10.09680362	17.83282042	17.34015591
H	9.78143040	17.20090203	18.20234683
H	11.18475571	18.05111609	17.39668416
H	9.95657951	17.18539906	16.48039079
C	9.07556530	22.82297201	16.58878211
H	8.23838837	23.49321061	16.29294907
H	9.74328299	22.88451071	15.70556732
H	9.56796225	23.40424332	17.40855172
C	5.40553634	19.36534077	17.28927784
H	4.71611724	20.19831912	17.24133998
H	5.12659958	18.62263700	18.16478896
H	5.23771165	18.69342897	16.43584198
C	14.81507229	26.09993929	18.49412511
H	13.86640065	25.90296580	18.01707853
H	15.47484065	25.51919412	17.84101079
H	15.09064838	27.15736535	18.35244673
C	14.68603516	22.32728443	21.82676428
H	15.25254941	21.65490081	21.20760839
H	13.67954202	21.90809425	21.83715525
H	15.05437897	22.14544300	22.89081537
C	15.51426761	27.06064300	23.29297461
H	16.35363071	27.69725632	22.93597628
H	15.71454030	26.60203390	24.25747537
H	14.70752502	27.77941311	23.48132194
C	22.13163417	21.45488058	15.44834578
C	20.15625063	20.35253221	16.34377140
C	19.84624070	22.40074058	15.11640902
C	14.76825855	25.55434941	19.89089237
C	14.79804091	23.77033703	21.49350397
C	15.04621023	26.05634194	22.32223515
C	9.17411863	19.06517389	17.29027128
C	8.65367580	21.45441726	16.96315248
C	6.84466098	19.81302193	17.29939850
H	12.92666543	16.59854366	13.15649181
H	15.44211823	19.35728523	10.84334743
C	14.28130121	17.99840054	12.15584365
C	13.51604397	16.84728481	12.22094259
C	14.96621559	18.36956137	10.96094545

Ti O H C N 0
6-31G*
****

