%chk=f00014660.chk
%mem=24GB
%nproc=12
#p b3lyp/6-31G*

title

0 1
Ti	2.81187400	0.19704000	1.10336000
Ti	0.90594400	5.44057000	1.10336000
Ti	4.71781400	5.44057000	1.10336000
Ti	0.90594400	2.47241000	1.99114000
Ti	4.71781400	2.47241000	1.99114000
Ti	2.81187400	7.71594000	1.99115000
O	2.81187400	8.81302000	0.37332000
O	0.90594400	3.56949000	0.37332000
O	4.71781400	3.56949000	0.37332000
O	0.90594400	0.60134000	1.26110000
O	4.71781400	0.60134000	1.26110000
O	2.81187400	5.84486000	1.26111000
O	2.81187400	2.06812000	1.83340000
O	0.90594400	7.31164000	1.83340000
O	4.71781400	7.31164000	1.83340000
O	0.90594400	4.34349000	2.72118000
O	4.71781400	4.34349000	2.72118000
O	2.81187400	9.58701000	2.72118000
Ti	6.62374588	0.19704000	1.10336000
Ti	21.87123776	0.19704000	1.10336000
Ti	8.52968588	5.44057000	1.10336000
Ti	23.77717776	5.44057000	1.10336000
Ti	8.52968588	2.47241000	1.99114000
Ti	23.77717776	2.47241000	1.99114000
Ti	6.62374588	7.71594000	1.99115000
Ti	21.87123776	7.71594000	1.99115000
Ti	10.43561588	0.19704000	1.10336000
Ti	25.68310776	0.19704000	1.10336000
Ti	14.24749588	0.19704000	1.10336000
Ti	29.49498776	0.19704000	1.10336000
Ti	18.05936588	0.19704000	1.10336000
Ti	12.34155588	5.44057000	1.10336000
Ti	27.58904776	5.44057000	1.10336000
Ti	16.15343588	5.44057000	1.10336000
Ti	19.96530588	5.44057000	1.10336000
Ti	12.34155588	2.47241000	1.99114000
Ti	27.58904776	2.47241000	1.99114000
Ti	16.15343588	2.47241000	1.99114000
Ti	19.96530588	2.47241000	1.99114000
Ti	10.43561588	7.71594000	1.99115000
Ti	25.68310776	7.71594000	1.99115000
Ti	14.24749588	7.71594000	1.99115000
Ti	29.49498776	7.71594000	1.99115000
Ti	18.05936588	7.71594000	1.99115000
O	6.62374588	8.81302000	0.37332000
O	21.87123776	8.81302000	0.37332000
O	8.52968588	3.56949000	0.37332000
O	23.77717776	3.56949000	0.37332000
O	8.52968588	0.60134000	1.26110000
O	23.77717776	0.60134000	1.26110000
O	6.62374588	5.84486000	1.26111000
O	21.87123776	5.84486000	1.26111000
O	6.62374588	2.06812000	1.83340000
O	21.87123776	2.06812000	1.83340000
O	8.52968588	7.31164000	1.83340000
O	23.77717776	7.31164000	1.83340000
O	8.52968588	4.34349000	2.72118000
O	23.77717776	4.34349000	2.72118000
O	6.62374588	9.58701000	2.72118000
O	21.87123776	9.58701000	2.72118000
O	10.43561588	8.81302000	0.37332000
O	25.68310776	8.81302000	0.37332000
O	14.24749588	8.81302000	0.37332000
O	29.49498776	8.81302000	0.37332000
O	18.05936588	8.81302000	0.37332000
O	12.34155588	3.56949000	0.37332000
O	27.58904776	3.56949000	0.37332000
O	16.15343588	3.56949000	0.37332000
O	19.96530588	3.56949000	0.37332000
O	12.34155588	0.60134000	1.26110000
O	27.58904776	0.60134000	1.26110000
O	16.15343588	0.60134000	1.26110000
O	19.96530588	0.60134000	1.26110000
O	10.43561588	5.84486000	1.26111000
O	25.68310776	5.84486000	1.26111000
O	14.24749588	5.84486000	1.26111000
O	29.49498776	5.84486000	1.26111000
O	18.05936588	5.84486000	1.26111000
O	10.43561588	2.06812000	1.83340000
O	25.68310776	2.06812000	1.83340000
O	14.24749588	2.06812000	1.83340000
O	29.49498776	2.06812000	1.83340000
O	18.05936588	2.06812000	1.83340000
O	12.34155588	7.31164000	1.83340000
O	27.58904776	7.31164000	1.83340000
O	16.15343588	7.31164000	1.83340000
O	19.96530588	7.31164000	1.83340000
O	12.34155588	4.34349000	2.72118000
O	27.58904776	4.34349000	2.72118000
O	16.15343588	4.34349000	2.72118000
O	19.96530588	4.34349000	2.72118000
O	10.43561588	9.58701000	2.72118000
O	25.68310776	9.58701000	2.72118000
O	14.24749588	9.58701000	2.72118000
O	29.49498776	9.58701000	2.72118000
O	18.05936588	9.58701000	2.72118000
Ti	2.81187400	10.68408607	1.10336000
Ti	2.81187400	21.17113214	1.10336000
Ti	0.90594400	15.92761607	1.10336000
Ti	0.90594400	26.41466214	1.10336000
Ti	4.71781400	15.92761607	1.10336000
Ti	4.71781400	26.41466214	1.10336000
Ti	0.90594400	12.95945607	1.99114000
Ti	0.90594400	23.44650214	1.99114000
Ti	4.71781400	12.95945607	1.99114000
Ti	4.71781400	23.44650214	1.99114000
Ti	2.81187400	18.20298607	1.99115000
Ti	2.81187400	28.69003214	1.99115000
O	2.81187400	19.30006607	0.37332000
O	2.81187400	29.78711214	0.37332000
O	0.90594400	14.05653607	0.37332000
O	0.90594400	24.54358214	0.37332000
O	4.71781400	14.05653607	0.37332000
O	4.71781400	24.54358214	0.37332000
O	0.90594400	11.08838607	1.26110000
O	0.90594400	21.57543214	1.26110000
O	4.71781400	11.08838607	1.26110000
O	4.71781400	21.57543214	1.26110000
O	2.81187400	16.33190607	1.26111000
O	2.81187400	26.81895214	1.26111000
O	2.81187400	12.55516607	1.83340000
O	2.81187400	23.04221214	1.83340000
O	0.90594400	17.79868607	1.83340000
O	0.90594400	28.28573214	1.83340000
O	4.71781400	17.79868607	1.83340000
O	4.71781400	28.28573214	1.83340000
O	0.90594400	14.83053607	2.72118000
O	0.90594400	25.31758214	2.72118000
O	4.71781400	14.83053607	2.72118000
O	4.71781400	25.31758214	2.72118000
O	2.81187400	20.07405607	2.72118000
O	2.81187400	30.56110214	2.72118000
Ti	6.62374588	10.68408607	1.10336000
Ti	6.62374588	21.17113214	1.10336000
Ti	21.87123776	10.68408607	1.10336000
Ti	21.87123776	21.17113214	1.10336000
Ti	8.52968588	15.92761607	1.10336000
Ti	8.52968588	26.41466214	1.10336000
Ti	23.77717776	15.92761607	1.10336000
Ti	23.77717776	26.41466214	1.10336000
Ti	8.52968588	12.95945607	1.99114000
Ti	8.52968588	23.44650214	1.99114000
Ti	23.77717776	12.95945607	1.99114000
Ti	23.77717776	23.44650214	1.99114000
Ti	6.62374588	18.20298607	1.99115000
Ti	6.62374588	28.69003214	1.99115000
Ti	21.87123776	18.20298607	1.99115000
Ti	21.87123776	28.69003214	1.99115000
Ti	10.43561588	10.68408607	1.10336000
Ti	10.43561588	21.17113214	1.10336000
Ti	25.68310776	10.68408607	1.10336000
Ti	25.68310776	21.17113214	1.10336000
Ti	14.24749588	10.68408607	1.10336000
Ti	14.24749588	21.17113214	1.10336000
Ti	29.49498776	10.68408607	1.10336000
Ti	29.49498776	21.17113214	1.10336000
Ti	18.05936588	10.68408607	1.10336000
Ti	18.05936588	21.17113214	1.10336000
Ti	12.34155588	15.92761607	1.10336000
Ti	12.34155588	26.41466214	1.10336000
Ti	27.58904776	15.92761607	1.10336000
Ti	27.58904776	26.41466214	1.10336000
Ti	16.15343588	15.92761607	1.10336000
Ti	16.15343588	26.41466214	1.10336000
Ti	19.96530588	15.92761607	1.10336000
Ti	19.96530588	26.41466214	1.10336000
Ti	12.34155588	12.95945607	1.99114000
Ti	12.34155588	23.44650214	1.99114000
Ti	27.58904776	12.95945607	1.99114000
Ti	27.58904776	23.44650214	1.99114000
Ti	16.15343588	12.95945607	1.99114000
Ti	16.15343588	23.44650214	1.99114000
Ti	19.96530588	12.95945607	1.99114000
Ti	19.96530588	23.44650214	1.99114000
Ti	10.43561588	18.20298607	1.99115000
Ti	10.43561588	28.69003214	1.99115000
Ti	25.68310776	18.20298607	1.99115000
Ti	25.68310776	28.69003214	1.99115000
Ti	14.24749588	18.20298607	1.99115000
Ti	14.24749588	28.69003214	1.99115000
Ti	29.49498776	18.20298607	1.99115000
Ti	29.49498776	28.69003214	1.99115000
Ti	18.05936588	18.20298607	1.99115000
Ti	18.05936588	28.69003214	1.99115000
O	6.62374588	19.30006607	0.37332000
O	6.62374588	29.78711214	0.37332000
O	21.87123776	19.30006607	0.37332000
O	21.87123776	29.78711214	0.37332000
O	8.52968588	14.05653607	0.37332000
O	8.52968588	24.54358214	0.37332000
O	23.77717776	14.05653607	0.37332000
O	23.77717776	24.54358214	0.37332000
O	8.52968588	11.08838607	1.26110000
O	8.52968588	21.57543214	1.26110000
O	23.77717776	11.08838607	1.26110000
O	23.77717776	21.57543214	1.26110000
O	6.62374588	16.33190607	1.26111000
O	6.62374588	26.81895214	1.26111000
O	21.87123776	16.33190607	1.26111000
O	21.87123776	26.81895214	1.26111000
O	6.62374588	12.55516607	1.83340000
O	6.62374588	23.04221214	1.83340000
O	21.87123776	12.55516607	1.83340000
O	21.87123776	23.04221214	1.83340000
O	8.52968588	17.79868607	1.83340000
O	8.52968588	28.28573214	1.83340000
O	23.77717776	17.79868607	1.83340000
O	23.77717776	28.28573214	1.83340000
O	8.52968588	14.83053607	2.72118000
O	8.52968588	25.31758214	2.72118000
O	23.77717776	14.83053607	2.72118000
O	23.77717776	25.31758214	2.72118000
O	6.62374588	20.07405607	2.72118000
O	6.62374588	30.56110214	2.72118000
O	21.87123776	20.07405607	2.72118000
O	21.87123776	30.56110214	2.72118000
O	10.43561588	19.30006607	0.37332000
O	10.43561588	29.78711214	0.37332000
O	25.68310776	19.30006607	0.37332000
O	25.68310776	29.78711214	0.37332000
O	14.24749588	19.30006607	0.37332000
O	14.24749588	29.78711214	0.37332000
O	29.49498776	19.30006607	0.37332000
O	29.49498776	29.78711214	0.37332000
O	18.05936588	19.30006607	0.37332000
O	18.05936588	29.78711214	0.37332000
O	12.34155588	14.05653607	0.37332000
O	12.34155588	24.54358214	0.37332000
O	27.58904776	14.05653607	0.37332000
O	27.58904776	24.54358214	0.37332000
O	16.15343588	14.05653607	0.37332000
O	16.15343588	24.54358214	0.37332000
O	19.96530588	14.05653607	0.37332000
O	19.96530588	24.54358214	0.37332000
O	12.34155588	11.08838607	1.26110000
O	12.34155588	21.57543214	1.26110000
O	27.58904776	11.08838607	1.26110000
O	27.58904776	21.57543214	1.26110000
O	16.15343588	11.08838607	1.26110000
O	16.15343588	21.57543214	1.26110000
O	19.96530588	11.08838607	1.26110000
O	19.96530588	21.57543214	1.26110000
O	10.43561588	16.33190607	1.26111000
O	10.43561588	26.81895214	1.26111000
O	25.68310776	16.33190607	1.26111000
O	25.68310776	26.81895214	1.26111000
O	14.24749588	16.33190607	1.26111000
O	14.24749588	26.81895214	1.26111000
O	29.49498776	16.33190607	1.26111000
O	29.49498776	26.81895214	1.26111000
O	18.05936588	16.33190607	1.26111000
O	18.05936588	26.81895214	1.26111000
O	10.43561588	12.55516607	1.83340000
O	10.43561588	23.04221214	1.83340000
O	25.68310776	12.55516607	1.83340000
O	25.68310776	23.04221214	1.83340000
O	14.24749588	12.55516607	1.83340000
O	14.24749588	23.04221214	1.83340000
O	29.49498776	12.55516607	1.83340000
O	29.49498776	23.04221214	1.83340000
O	18.05936588	12.55516607	1.83340000
O	18.05936588	23.04221214	1.83340000
O	12.34155588	17.79868607	1.83340000
O	12.34155588	28.28573214	1.83340000
O	27.58904776	17.79868607	1.83340000
O	27.58904776	28.28573214	1.83340000
O	16.15343588	17.79868607	1.83340000
O	16.15343588	28.28573214	1.83340000
O	19.96530588	17.79868607	1.83340000
O	19.96530588	28.28573214	1.83340000
O	12.34155588	14.83053607	2.72118000
O	12.34155588	25.31758214	2.72118000
O	27.58904776	14.83053607	2.72118000
O	27.58904776	25.31758214	2.72118000
O	16.15343588	14.83053607	2.72118000
O	16.15343588	25.31758214	2.72118000
O	19.96530588	14.83053607	2.72118000
O	19.96530588	25.31758214	2.72118000
O	10.43561588	20.07405607	2.72118000
O	10.43561588	30.56110214	2.72118000
O	25.68310776	20.07405607	2.72118000
O	25.68310776	30.56110214	2.72118000
O	14.24749588	20.07405607	2.72118000
O	14.24749588	30.56110214	2.72118000
O	29.49498776	20.07405607	2.72118000
O	29.49498776	30.56110214	2.72118000
O	18.05936588	20.07405607	2.72118000
O	18.05936588	30.56110214	2.72118000
Ti	6.71294034	9.25962707	4.59463468
Ti	6.54868749	6.41306800	5.51407680
Ti	2.84485921	9.26467711	4.64388016
Ti	0.91707699	4.06837913	4.69322887
Ti	4.73112278	4.00733916	4.67877571
Ti	1.03463146	1.17749348	5.54683013
Ti	4.76937927	1.11069067	5.40497619
Ti	2.77106642	6.42122931	5.51945918
O	6.66723762	7.37077363	3.99091126
O	6.61293038	4.45473789	4.86777072
O	6.62650298	0.50192520	5.77244526
O	6.72335848	8.22467401	6.36916851
O	2.77970032	7.38866143	3.98988371
O	0.82324189	2.19148994	3.96932365
O	4.80537315	2.12850818	3.92399636
O	0.83072945	9.63332955	4.73133546
O	4.78176751	9.67975365	4.72383724
O	2.85192395	4.47958970	4.82115648
O	2.87227483	0.63706338	5.72931329
O	0.89754144	5.77122355	5.86643681
O	4.67439803	5.92712284	5.78270437
O	1.18590999	2.95396525	6.34443672
O	4.67024829	2.82212725	6.29700999
O	2.95622667	8.13788161	6.34406780
Ti	21.90893012	9.24371085	4.62949562
Ti	8.56490182	4.03218325	4.78465973
Ti	23.87747166	3.95061711	4.79484728
Ti	8.46710084	1.05616699	5.49623984
Ti	23.82551639	0.99037744	5.51492035
Ti	21.73627573	6.41103947	5.57745182
Ti	10.51076418	9.25768429	4.70797988
Ti	25.69783786	9.25973398	4.64796256
Ti	14.24865435	9.26443790	4.66653529
Ti	29.50512926	9.22692637	4.83129966
Ti	18.07008612	9.34155923	4.76507798
Ti	12.28976293	4.02325066	4.76422880
Ti	27.65346246	4.05529732	4.71360544
Ti	16.13635067	3.97169404	4.76911088
Ti	19.97004617	3.91185752	4.69474474
Ti	12.35162676	1.07618547	5.59002262
Ti	27.50065797	1.15420111	5.56790127
Ti	16.13841827	1.01994528	5.46412046
Ti	19.86363421	1.03720517	5.58780728
Ti	10.48272244	6.36109297	5.53261783
Ti	25.69547020	6.38773518	5.57306405
Ti	14.29603857	6.31211463	5.54208629
Ti	29.50999316	6.35398386	5.51389639
Ti	18.18920856	6.31115510	5.55692529
O	21.77145330	7.36183527	3.93292863
O	8.60189456	2.20545341	3.92205045
O	23.77777279	1.97940455	3.91298542
O	8.65476954	9.64531172	4.71588558
O	23.77517466	9.60457058	4.81517045
O	21.82877852	4.37032317	4.69737319
O	21.84631725	0.58980336	5.76323048
O	8.56197168	5.92197987	5.70735984
O	23.68428149	5.94000326	5.52418106
O	8.44783376	2.80332443	6.33411155
O	23.84433191	2.66692459	6.45057776
O	21.71090537	8.16502969	6.41414490
O	10.48748255	7.34429747	3.98757859
O	25.81118398	7.36168271	3.87261292
O	14.27532056	7.32170831	4.02982834
O	29.26752029	7.39430727	3.97292395
O	18.11735659	7.35984787	3.93170682
O	12.57935712	2.18283503	3.93961570
O	27.36848679	2.07879069	3.91758194
O	16.05198475	2.00168079	3.91667141
O	20.04737996	2.01041488	3.90839469
O	12.40694164	9.74424099	4.68946439
O	27.56084630	9.65015904	4.71854449
O	16.12084875	9.66667486	4.83594625
O	19.95829232	9.77548271	4.63854127
O	10.44282737	4.41154362	4.86275334
O	25.68698835	4.36834318	4.97372292
O	14.20571596	4.52364311	4.73176314
O	29.47077603	4.42138388	4.79142687
O	18.04523552	4.35393458	4.98711336
O	10.40745189	0.59405818	5.64299343
O	25.65911022	0.51386641	5.82404685
O	14.24002717	0.54533292	5.71705017
O	29.53175687	0.67940375	5.80182846
O	17.94565192	0.56302921	5.81218803
O	12.38413881	5.79188683	5.90435990
O	27.62816122	5.88575581	5.83747700
O	16.25759689	5.79236170	5.64146209
O	20.04892053	5.65593978	5.86861054
O	12.32744650	2.88979877	6.36928755
O	27.89446163	2.85908806	6.29975497
O	15.97875396	2.82173564	6.29721458
O	19.94738732	2.79585154	6.33281052
O	10.48297012	8.17079884	6.28977090
O	25.89471445	8.13119581	6.27023587
O	14.06215855	8.03990767	6.53386137
O	29.60119912	8.00406828	6.31602041
O	18.57454778	8.03082559	6.31772731
Ti	6.71983438	19.70405884	4.79162306
Ti	6.59810597	30.18987402	4.71040152
Ti	6.56766594	16.74185522	5.57411870
Ti	6.59878943	27.35339934	5.56138651
Ti	2.81317206	19.85077261	4.68445499
Ti	2.85643389	30.25253049	4.86582579
Ti	0.83853575	14.28159736	4.64108684
Ti	0.90168542	24.96664594	4.67633251
Ti	4.54899339	14.54308562	4.78479233
Ti	4.73860420	24.96305126	4.73512661
Ti	0.83012599	11.46499511	5.50958660
Ti	0.81768429	22.09336804	5.66007749
Ti	4.66260821	11.58418045	5.36395644
Ti	4.77145175	22.05744331	5.54477886
Ti	2.69864054	16.98173874	5.57183290
Ti	2.78621085	27.29082035	5.38349723
O	6.69130289	17.80754321	3.98078143
O	6.58062110	28.27086815	4.00659747
O	6.50050853	14.92883295	4.74380601
O	6.61843888	25.40496482	5.04585102
O	6.61439373	11.11551226	5.60123018
O	6.64642444	21.52154218	5.77530326
O	6.55531145	18.48705947	6.34007760
O	6.54400842	29.04838416	6.37292044
O	2.79225565	17.88316636	3.93770645
O	2.95548713	28.32810221	3.93241585
O	0.90889094	12.43013749	3.91330650
O	0.74313102	23.08028560	3.91424604
O	4.55574466	12.63239974	3.87798719
O	4.62497400	23.02859386	3.92795441
O	0.88966817	20.01883880	4.79431314
O	0.98248755	30.75082949	4.77773390
O	4.68863279	20.12623135	4.67939926
O	4.74363242	30.63090010	4.69189687
O	2.63444669	15.00846035	4.82962661
O	2.73584775	25.43215015	4.68115173
O	2.77377133	11.07619337	5.63669736
O	2.70070526	21.55371661	5.76520223
O	0.86979953	16.86218818	5.91527368
O	0.82730966	27.04852589	5.54294303
O	4.68097926	16.34056151	5.81172533
O	4.67936660	26.77354019	5.66533145
O	0.92069868	13.33695127	6.33768990
O	0.74892809	23.82969051	6.38235425
O	4.46705166	13.25511174	6.29375283
O	4.82651448	23.76173142	6.40786597
O	2.99625100	18.59953763	6.34391085
O	2.69762880	28.91660474	6.30932882
Ti	21.83962682	19.69535336	4.64419769
Ti	21.86524213	30.16492606	4.72202740
Ti	8.45487006	14.56133021	4.72490930
Ti	8.43913925	24.93355797	4.68266661
Ti	23.82383005	14.42962884	4.69599915
Ti	23.72499758	24.88326971	4.68129857
Ti	8.55797747	11.49122193	5.52797174
Ti	8.57020822	21.98260973	5.40517018
Ti	23.77067259	11.45165437	5.49574493
Ti	23.68890282	22.03310217	5.63824959
Ti	21.91129495	16.75579336	5.42196896
Ti	21.74467199	27.32349627	5.59746187
Ti	10.51410606	19.75844768	4.72679575
Ti	10.47008024	30.17377041	4.90882134
Ti	25.67525751	19.76254270	4.84742556
Ti	25.66777576	30.20771889	4.80949882
Ti	14.25576921	19.66597652	4.88966936
Ti	14.17375825	30.13143473	4.86433258
Ti	29.39895250	19.79582624	4.82550173
Ti	29.49604643	30.38035042	4.71901788
Ti	18.03058653	19.67798285	4.72839904
Ti	18.02318425	30.17678913	4.81296455
Ti	12.28202057	14.54693947	4.71406828
Ti	12.31775907	24.85821165	5.01349391
Ti	27.64687465	14.43826305	4.79342102
Ti	27.54632465	25.04246979	4.81013114
Ti	16.10109818	14.48673321	4.76013266
Ti	16.09158362	24.85573824	4.75874792
Ti	20.07932123	14.52356595	4.76545136
Ti	19.90947547	24.97301685	4.72351167
Ti	12.30481727	11.62711144	5.54941636
Ti	12.32113846	21.94416209	5.50680510
Ti	27.60256491	11.50945910	5.54424902
Ti	27.43532369	22.10816911	5.60658423
Ti	16.07511461	11.50899042	5.38716398
Ti	16.15948107	21.95046434	5.50773698
Ti	20.01107757	11.53786019	5.49243676
Ti	19.89801849	22.07531466	5.52089503
Ti	10.42267045	16.76678101	5.56505366
Ti	10.56400024	27.23047901	5.44775142
Ti	25.70407839	16.78364739	5.46436751
Ti	25.53905901	27.31258210	5.56522110
Ti	14.23974153	16.78216200	5.78991349
Ti	14.13500424	27.16515153	5.45260555
Ti	29.45176302	16.86997834	5.52718989
Ti	29.40479724	27.44731350	5.53379573
Ti	18.03393415	16.80564413	5.60486349
Ti	17.96821329	27.24158372	5.47742109
O	21.87972362	17.81738405	3.90439730
O	22.09309459	28.30785791	3.99168478
O	8.71130319	12.55645060	3.93383091
O	8.60471806	23.08178158	3.86550119
O	23.71028164	12.55975295	3.96619549
O	23.93771512	22.95457012	4.01781392
O	8.59198085	20.06054828	4.72052013
O	8.55231808	30.50384775	4.90639194
O	23.83751016	20.29098800	4.62271695
O	23.76788656	30.46107645	4.82144169
O	21.91188650	15.02059308	4.69742287
O	21.88925464	25.40010519	4.63765373
O	21.85799046	11.05082876	5.66282761
O	21.84833018	21.50438432	5.82736958
O	8.55924343	16.16374454	5.87599469
O	8.49847863	26.90337787	5.57024829
O	23.75336072	16.25050984	5.57044890
O	23.58467670	26.82681440	5.67577875
O	8.53703525	13.31122878	6.34646050
O	8.39244897	23.65559547	6.21356361
O	23.79641387	13.27751661	6.32275001
O	23.80465549	23.81219106	6.31323285
O	22.09996919	18.49985509	6.24633356
O	21.51963366	29.07876317	6.31408972
O	10.49179609	17.93986203	3.96066827
O	10.65265563	28.28653384	3.95357086
O	25.82077552	17.79983240	3.97275856
O	25.63612577	28.34379439	3.94357222
O	14.47481821	17.84876532	4.08325535
O	14.16762882	28.36943793	3.95756375
O	29.22965078	17.90186396	3.96276634
O	29.49744429	28.50849177	3.93656540
O	18.10626095	17.79026635	3.98284636
O	17.79434581	28.37329080	3.97660369
O	12.22606530	12.67361200	3.96904572
O	12.19174419	23.06829921	4.00184582
O	27.44856754	12.60013027	4.00963016
O	27.45782508	23.02486618	3.96173174
O	16.14737703	12.61008402	3.82817390
O	15.93250413	22.96428070	3.90720860
O	19.98499223	12.62393357	3.95289730
O	19.98833369	23.04205471	3.92032725
O	12.36456467	20.18389407	4.65511843
O	12.34737640	30.60064173	4.77902725
O	27.56167119	20.25006568	4.56784195
O	27.53154978	30.74271544	4.70478090
O	16.17842618	20.05546046	4.83541360
O	16.08306214	30.51708351	4.88611930
O	19.95674808	20.06930021	4.91957434
O	19.96039694	30.55062479	4.83491523
O	10.40935160	14.88809189	4.81609197
O	10.38211148	25.31711990	4.85679279
O	25.81241688	14.83312988	4.96446301
O	25.61054035	25.49588070	4.89708719
O	14.24837950	14.81468134	4.89863536
O	14.17682019	25.23511258	4.83185333
O	29.56036507	15.03343685	4.73837341
O	29.43226915	25.44595471	4.72776050
O	18.05691935	14.94084298	4.88243195
O	18.01985903	25.25265989	4.57343066
O	10.50608281	11.03894061	5.82118563
O	10.37165651	21.53170279	5.85978056
O	25.67206311	11.02144707	5.82542153
O	25.59064977	21.53456176	6.00519693
O	14.19575052	11.01200837	5.83029989
O	14.16507209	21.33237848	5.98236859
O	29.40852327	11.05666144	5.84441404
O	29.40993130	21.73819593	5.81048160
O	18.01315937	11.14410931	5.71713064
O	18.06675967	21.56200309	5.68209727
O	12.30841775	16.40465550	5.62180167
O	12.30472970	26.62191248	5.95675983
O	27.58175200	16.25806923	5.85805484
O	27.49851315	26.88857255	5.91646998
O	16.15962448	16.21424206	5.78670172
O	16.05292458	26.59164894	5.74250835
O	20.04573319	16.21829013	5.85421313
O	19.82904968	26.76325745	5.59314436
O	12.37082184	13.45559305	6.28062379
O	12.50980644	23.63613056	6.49129044
O	27.74605450	13.20177919	6.38179094
O	27.36836132	23.82808721	6.31479382
O	16.21093508	13.25753470	6.31163330
O	16.14276856	23.63586477	6.40847295
O	20.06474055	13.23621739	6.42538477
O	19.96442887	23.79551327	6.37568901
O	10.47612908	18.59884964	6.45025636
O	10.44498618	28.88910634	6.35610485
O	25.60379704	18.60416615	6.32110674
O	25.64360358	29.12835178	6.50051864
O	14.21060576	18.62137755	6.51547039
O	14.25856799	28.83891875	6.43698461
O	29.38092079	18.66238242	6.34818645
O	29.38516439	29.17004265	6.28481564
O	18.12024782	18.44193954	6.43196997
O	17.95000031	28.87005118	6.35658002
H	15.85516423	14.41018184	7.69793476
H	16.19942619	15.49565284	10.89200440
H	13.01433208	17.71853535	9.19699891
O	14.07031582	15.98455007	7.58151397
O	15.76066465	14.92702584	8.54296040
C	14.84329602	15.85541140	8.65056421
C	14.65236872	16.54641912	9.91155304
C	15.51014274	16.32922477	10.99217393
C	13.68595204	17.58899612	10.01295126
N	13.43892084	19.17950830	15.64301359
N	15.51842166	22.51737044	16.89425767
N	15.61136800	20.87918943	14.46505053
N	13.45777166	20.78005924	18.17329772
C	20.83058977	23.77574851	14.65376737
C	14.40747975	24.61682830	22.59051214
C	8.39520095	17.95698859	18.07009901
C	18.41761920	23.41652353	14.59272892
C	14.17598710	23.80321019	20.25602526
C	10.81583794	18.04011076	18.11791690
C	19.41148801	25.14271237	13.27195730
C	12.90390984	25.75722968	21.05381976
C	9.68872723	16.30131845	19.37401088
C	14.42693356	18.90386424	13.43547167
C	17.17842018	22.68584629	15.05328624
C	14.43760309	22.81437265	19.17228429
C	12.03316297	18.79095532	17.68485874
C	15.37558344	19.98722340	13.53001970
C	16.68406371	21.70070264	14.17841522
C	13.56402941	21.75491378	19.12077713
C	12.52513533	19.80376360	18.49178883
C	16.39260057	20.10622986	12.49345696
C	17.16040530	21.21999789	12.90051971
C	12.48302675	21.48388730	20.06369530
C	12.01273544	20.21117438	19.77964079
C	13.45314356	18.58634903	14.39689715
C	16.63948446	23.07757828	16.29705191
C	15.35374660	23.13426466	18.11084014
C	12.43028513	18.60290334	16.32983384
C	12.43703385	17.55744538	14.31180892
C	17.20802399	24.09212842	17.16409794
C	16.36333640	24.16374609	18.26847756
C	11.81068886	17.54547675	15.50916249
H	12.33536404	16.96533331	13.39241109
H	18.12005140	24.69197678	17.00115098
H	16.56421838	24.80586765	19.14691628
H	10.98430122	16.93594082	15.89866204
H	16.49188650	19.70084093	11.51739299
H	17.84700833	21.67958637	12.18296571
H	12.17662899	22.13388637	20.85540571
H	11.29291998	19.71782297	20.43479207
H	19.37670727	25.99680013	12.53339935
H	12.09901275	26.48873109	20.81417696
H	9.69365278	15.49160982	20.10200954
H	21.77276642	23.34316208	14.97456562
H	14.83266941	24.52184755	23.57273461
H	7.37718996	18.38046891	17.93682064
H	14.99939879	20.99965524	15.29588331
H	14.06746303	20.67549234	17.33730543
C	21.84739820	25.65388570	13.34559842
H	22.63354713	25.64328140	14.19846545
H	21.53645323	26.70221490	13.02579656
H	22.31480283	25.16744503	12.44550335
C	19.82952965	21.96217839	16.12044205
H	19.48329683	20.98203929	15.74848003
H	19.13814786	22.09468799	17.00084344
H	20.83701716	21.75957729	16.59922850
C	16.92138929	24.73741007	13.08959867
H	16.82191453	25.14599260	12.10379640
H	16.48856085	25.52188772	13.67130505
H	16.23438764	23.84649724	13.18853176
C	12.16863469	16.33300828	19.36216776
H	12.12617284	15.31419526	18.97947635
H	12.12854159	16.12447269	20.46438491
H	13.06601715	16.85408245	19.06538041
C	9.54437780	19.83291056	16.87287535
H	8.49555109	20.15718078	16.78913784
H	9.90435526	19.51748857	15.86537022
H	10.13876958	20.64629138	17.34353284
C	7.09520370	16.18501326	19.24029737
H	6.58628751	16.85546083	19.98966108
H	7.19071689	15.16325647	19.59765650
H	6.53551366	16.22707294	18.29908252
C	12.39381337	24.76560115	18.79850713
H	11.82049479	25.67113617	18.66552338
H	11.76873371	23.86487212	18.57423071
H	13.11566423	24.71139959	17.96948704
C	15.83261753	22.75936647	21.96699143
H	16.11574874	22.10400470	21.07540643
H	15.53654181	22.03178088	22.69541029
H	16.65303757	23.37278221	22.31513234
C	13.22315726	26.67114711	23.41017616
H	13.04604489	26.11521677	24.33983383
H	12.33022664	27.29558784	23.20039941
H	14.08442240	27.30150023	23.58122732
C	20.68516376	24.82308256	13.74204071
C	19.68450480	23.09542344	15.13217537
C	18.26464235	24.42485091	13.63358177
C	13.17521288	24.76949211	20.03847546
C	14.76401907	23.73977542	21.59735346
C	13.56558244	25.73946666	22.29309014
C	10.83926196	16.93850300	18.95805118
C	9.59583656	18.60335472	17.69423394
C	8.42726076	16.79359372	18.90946192
H	16.20448721	17.00906904	12.99335950
H	12.67476170	18.92826609	11.46985674
C	14.48964716	18.02324043	12.27099105
C	15.44577846	17.00728857	12.19827298
C	13.52606836	18.24843598	11.22182526

Ti O H C N 0
6-31G*
****

