%chk=f00019021.chk
%mem=24GB
%nproc=12
#p b3lyp/6-31G*

title

0 1
Ti	2.81187400	0.19704000	1.10336000
Ti	0.90594400	5.44057000	1.10336000
Ti	4.71781400	5.44057000	1.10336000
Ti	0.90594400	2.47241000	1.99114000
Ti	4.71781400	2.47241000	1.99114000
Ti	2.81187400	7.71594000	1.99115000
O	2.81187400	8.81302000	0.37332000
O	0.90594400	3.56949000	0.37332000
O	4.71781400	3.56949000	0.37332000
O	0.90594400	0.60134000	1.26110000
O	4.71781400	0.60134000	1.26110000
O	2.81187400	5.84486000	1.26111000
O	2.81187400	2.06812000	1.83340000
O	0.90594400	7.31164000	1.83340000
O	4.71781400	7.31164000	1.83340000
O	0.90594400	4.34349000	2.72118000
O	4.71781400	4.34349000	2.72118000
O	2.81187400	9.58701000	2.72118000
Ti	6.62374588	0.19704000	1.10336000
Ti	21.87123776	0.19704000	1.10336000
Ti	8.52968588	5.44057000	1.10336000
Ti	23.77717776	5.44057000	1.10336000
Ti	8.52968588	2.47241000	1.99114000
Ti	23.77717776	2.47241000	1.99114000
Ti	6.62374588	7.71594000	1.99115000
Ti	21.87123776	7.71594000	1.99115000
Ti	10.43561588	0.19704000	1.10336000
Ti	25.68310776	0.19704000	1.10336000
Ti	14.24749588	0.19704000	1.10336000
Ti	29.49498776	0.19704000	1.10336000
Ti	18.05936588	0.19704000	1.10336000
Ti	12.34155588	5.44057000	1.10336000
Ti	27.58904776	5.44057000	1.10336000
Ti	16.15343588	5.44057000	1.10336000
Ti	19.96530588	5.44057000	1.10336000
Ti	12.34155588	2.47241000	1.99114000
Ti	27.58904776	2.47241000	1.99114000
Ti	16.15343588	2.47241000	1.99114000
Ti	19.96530588	2.47241000	1.99114000
Ti	10.43561588	7.71594000	1.99115000
Ti	25.68310776	7.71594000	1.99115000
Ti	14.24749588	7.71594000	1.99115000
Ti	29.49498776	7.71594000	1.99115000
Ti	18.05936588	7.71594000	1.99115000
O	6.62374588	8.81302000	0.37332000
O	21.87123776	8.81302000	0.37332000
O	8.52968588	3.56949000	0.37332000
O	23.77717776	3.56949000	0.37332000
O	8.52968588	0.60134000	1.26110000
O	23.77717776	0.60134000	1.26110000
O	6.62374588	5.84486000	1.26111000
O	21.87123776	5.84486000	1.26111000
O	6.62374588	2.06812000	1.83340000
O	21.87123776	2.06812000	1.83340000
O	8.52968588	7.31164000	1.83340000
O	23.77717776	7.31164000	1.83340000
O	8.52968588	4.34349000	2.72118000
O	23.77717776	4.34349000	2.72118000
O	6.62374588	9.58701000	2.72118000
O	21.87123776	9.58701000	2.72118000
O	10.43561588	8.81302000	0.37332000
O	25.68310776	8.81302000	0.37332000
O	14.24749588	8.81302000	0.37332000
O	29.49498776	8.81302000	0.37332000
O	18.05936588	8.81302000	0.37332000
O	12.34155588	3.56949000	0.37332000
O	27.58904776	3.56949000	0.37332000
O	16.15343588	3.56949000	0.37332000
O	19.96530588	3.56949000	0.37332000
O	12.34155588	0.60134000	1.26110000
O	27.58904776	0.60134000	1.26110000
O	16.15343588	0.60134000	1.26110000
O	19.96530588	0.60134000	1.26110000
O	10.43561588	5.84486000	1.26111000
O	25.68310776	5.84486000	1.26111000
O	14.24749588	5.84486000	1.26111000
O	29.49498776	5.84486000	1.26111000
O	18.05936588	5.84486000	1.26111000
O	10.43561588	2.06812000	1.83340000
O	25.68310776	2.06812000	1.83340000
O	14.24749588	2.06812000	1.83340000
O	29.49498776	2.06812000	1.83340000
O	18.05936588	2.06812000	1.83340000
O	12.34155588	7.31164000	1.83340000
O	27.58904776	7.31164000	1.83340000
O	16.15343588	7.31164000	1.83340000
O	19.96530588	7.31164000	1.83340000
O	12.34155588	4.34349000	2.72118000
O	27.58904776	4.34349000	2.72118000
O	16.15343588	4.34349000	2.72118000
O	19.96530588	4.34349000	2.72118000
O	10.43561588	9.58701000	2.72118000
O	25.68310776	9.58701000	2.72118000
O	14.24749588	9.58701000	2.72118000
O	29.49498776	9.58701000	2.72118000
O	18.05936588	9.58701000	2.72118000
Ti	2.81187400	10.68408607	1.10336000
Ti	2.81187400	21.17113214	1.10336000
Ti	0.90594400	15.92761607	1.10336000
Ti	0.90594400	26.41466214	1.10336000
Ti	4.71781400	15.92761607	1.10336000
Ti	4.71781400	26.41466214	1.10336000
Ti	0.90594400	12.95945607	1.99114000
Ti	0.90594400	23.44650214	1.99114000
Ti	4.71781400	12.95945607	1.99114000
Ti	4.71781400	23.44650214	1.99114000
Ti	2.81187400	18.20298607	1.99115000
Ti	2.81187400	28.69003214	1.99115000
O	2.81187400	19.30006607	0.37332000
O	2.81187400	29.78711214	0.37332000
O	0.90594400	14.05653607	0.37332000
O	0.90594400	24.54358214	0.37332000
O	4.71781400	14.05653607	0.37332000
O	4.71781400	24.54358214	0.37332000
O	0.90594400	11.08838607	1.26110000
O	0.90594400	21.57543214	1.26110000
O	4.71781400	11.08838607	1.26110000
O	4.71781400	21.57543214	1.26110000
O	2.81187400	16.33190607	1.26111000
O	2.81187400	26.81895214	1.26111000
O	2.81187400	12.55516607	1.83340000
O	2.81187400	23.04221214	1.83340000
O	0.90594400	17.79868607	1.83340000
O	0.90594400	28.28573214	1.83340000
O	4.71781400	17.79868607	1.83340000
O	4.71781400	28.28573214	1.83340000
O	0.90594400	14.83053607	2.72118000
O	0.90594400	25.31758214	2.72118000
O	4.71781400	14.83053607	2.72118000
O	4.71781400	25.31758214	2.72118000
O	2.81187400	20.07405607	2.72118000
O	2.81187400	30.56110214	2.72118000
Ti	6.62374588	10.68408607	1.10336000
Ti	6.62374588	21.17113214	1.10336000
Ti	21.87123776	10.68408607	1.10336000
Ti	21.87123776	21.17113214	1.10336000
Ti	8.52968588	15.92761607	1.10336000
Ti	8.52968588	26.41466214	1.10336000
Ti	23.77717776	15.92761607	1.10336000
Ti	23.77717776	26.41466214	1.10336000
Ti	8.52968588	12.95945607	1.99114000
Ti	8.52968588	23.44650214	1.99114000
Ti	23.77717776	12.95945607	1.99114000
Ti	23.77717776	23.44650214	1.99114000
Ti	6.62374588	18.20298607	1.99115000
Ti	6.62374588	28.69003214	1.99115000
Ti	21.87123776	18.20298607	1.99115000
Ti	21.87123776	28.69003214	1.99115000
Ti	10.43561588	10.68408607	1.10336000
Ti	10.43561588	21.17113214	1.10336000
Ti	25.68310776	10.68408607	1.10336000
Ti	25.68310776	21.17113214	1.10336000
Ti	14.24749588	10.68408607	1.10336000
Ti	14.24749588	21.17113214	1.10336000
Ti	29.49498776	10.68408607	1.10336000
Ti	29.49498776	21.17113214	1.10336000
Ti	18.05936588	10.68408607	1.10336000
Ti	18.05936588	21.17113214	1.10336000
Ti	12.34155588	15.92761607	1.10336000
Ti	12.34155588	26.41466214	1.10336000
Ti	27.58904776	15.92761607	1.10336000
Ti	27.58904776	26.41466214	1.10336000
Ti	16.15343588	15.92761607	1.10336000
Ti	16.15343588	26.41466214	1.10336000
Ti	19.96530588	15.92761607	1.10336000
Ti	19.96530588	26.41466214	1.10336000
Ti	12.34155588	12.95945607	1.99114000
Ti	12.34155588	23.44650214	1.99114000
Ti	27.58904776	12.95945607	1.99114000
Ti	27.58904776	23.44650214	1.99114000
Ti	16.15343588	12.95945607	1.99114000
Ti	16.15343588	23.44650214	1.99114000
Ti	19.96530588	12.95945607	1.99114000
Ti	19.96530588	23.44650214	1.99114000
Ti	10.43561588	18.20298607	1.99115000
Ti	10.43561588	28.69003214	1.99115000
Ti	25.68310776	18.20298607	1.99115000
Ti	25.68310776	28.69003214	1.99115000
Ti	14.24749588	18.20298607	1.99115000
Ti	14.24749588	28.69003214	1.99115000
Ti	29.49498776	18.20298607	1.99115000
Ti	29.49498776	28.69003214	1.99115000
Ti	18.05936588	18.20298607	1.99115000
Ti	18.05936588	28.69003214	1.99115000
O	6.62374588	19.30006607	0.37332000
O	6.62374588	29.78711214	0.37332000
O	21.87123776	19.30006607	0.37332000
O	21.87123776	29.78711214	0.37332000
O	8.52968588	14.05653607	0.37332000
O	8.52968588	24.54358214	0.37332000
O	23.77717776	14.05653607	0.37332000
O	23.77717776	24.54358214	0.37332000
O	8.52968588	11.08838607	1.26110000
O	8.52968588	21.57543214	1.26110000
O	23.77717776	11.08838607	1.26110000
O	23.77717776	21.57543214	1.26110000
O	6.62374588	16.33190607	1.26111000
O	6.62374588	26.81895214	1.26111000
O	21.87123776	16.33190607	1.26111000
O	21.87123776	26.81895214	1.26111000
O	6.62374588	12.55516607	1.83340000
O	6.62374588	23.04221214	1.83340000
O	21.87123776	12.55516607	1.83340000
O	21.87123776	23.04221214	1.83340000
O	8.52968588	17.79868607	1.83340000
O	8.52968588	28.28573214	1.83340000
O	23.77717776	17.79868607	1.83340000
O	23.77717776	28.28573214	1.83340000
O	8.52968588	14.83053607	2.72118000
O	8.52968588	25.31758214	2.72118000
O	23.77717776	14.83053607	2.72118000
O	23.77717776	25.31758214	2.72118000
O	6.62374588	20.07405607	2.72118000
O	6.62374588	30.56110214	2.72118000
O	21.87123776	20.07405607	2.72118000
O	21.87123776	30.56110214	2.72118000
O	10.43561588	19.30006607	0.37332000
O	10.43561588	29.78711214	0.37332000
O	25.68310776	19.30006607	0.37332000
O	25.68310776	29.78711214	0.37332000
O	14.24749588	19.30006607	0.37332000
O	14.24749588	29.78711214	0.37332000
O	29.49498776	19.30006607	0.37332000
O	29.49498776	29.78711214	0.37332000
O	18.05936588	19.30006607	0.37332000
O	18.05936588	29.78711214	0.37332000
O	12.34155588	14.05653607	0.37332000
O	12.34155588	24.54358214	0.37332000
O	27.58904776	14.05653607	0.37332000
O	27.58904776	24.54358214	0.37332000
O	16.15343588	14.05653607	0.37332000
O	16.15343588	24.54358214	0.37332000
O	19.96530588	14.05653607	0.37332000
O	19.96530588	24.54358214	0.37332000
O	12.34155588	11.08838607	1.26110000
O	12.34155588	21.57543214	1.26110000
O	27.58904776	11.08838607	1.26110000
O	27.58904776	21.57543214	1.26110000
O	16.15343588	11.08838607	1.26110000
O	16.15343588	21.57543214	1.26110000
O	19.96530588	11.08838607	1.26110000
O	19.96530588	21.57543214	1.26110000
O	10.43561588	16.33190607	1.26111000
O	10.43561588	26.81895214	1.26111000
O	25.68310776	16.33190607	1.26111000
O	25.68310776	26.81895214	1.26111000
O	14.24749588	16.33190607	1.26111000
O	14.24749588	26.81895214	1.26111000
O	29.49498776	16.33190607	1.26111000
O	29.49498776	26.81895214	1.26111000
O	18.05936588	16.33190607	1.26111000
O	18.05936588	26.81895214	1.26111000
O	10.43561588	12.55516607	1.83340000
O	10.43561588	23.04221214	1.83340000
O	25.68310776	12.55516607	1.83340000
O	25.68310776	23.04221214	1.83340000
O	14.24749588	12.55516607	1.83340000
O	14.24749588	23.04221214	1.83340000
O	29.49498776	12.55516607	1.83340000
O	29.49498776	23.04221214	1.83340000
O	18.05936588	12.55516607	1.83340000
O	18.05936588	23.04221214	1.83340000
O	12.34155588	17.79868607	1.83340000
O	12.34155588	28.28573214	1.83340000
O	27.58904776	17.79868607	1.83340000
O	27.58904776	28.28573214	1.83340000
O	16.15343588	17.79868607	1.83340000
O	16.15343588	28.28573214	1.83340000
O	19.96530588	17.79868607	1.83340000
O	19.96530588	28.28573214	1.83340000
O	12.34155588	14.83053607	2.72118000
O	12.34155588	25.31758214	2.72118000
O	27.58904776	14.83053607	2.72118000
O	27.58904776	25.31758214	2.72118000
O	16.15343588	14.83053607	2.72118000
O	16.15343588	25.31758214	2.72118000
O	19.96530588	14.83053607	2.72118000
O	19.96530588	25.31758214	2.72118000
O	10.43561588	20.07405607	2.72118000
O	10.43561588	30.56110214	2.72118000
O	25.68310776	20.07405607	2.72118000
O	25.68310776	30.56110214	2.72118000
O	14.24749588	20.07405607	2.72118000
O	14.24749588	30.56110214	2.72118000
O	29.49498776	20.07405607	2.72118000
O	29.49498776	30.56110214	2.72118000
O	18.05936588	20.07405607	2.72118000
O	18.05936588	30.56110214	2.72118000
Ti	6.70291492	9.15168873	4.69188730
Ti	6.60256531	6.21568510	5.51574564
Ti	2.86941250	9.27267169	4.81209099
Ti	0.92034717	3.94231331	4.78556704
Ti	4.68130171	3.96051521	4.78943024
Ti	0.95967046	1.04169054	5.45995709
Ti	4.88884349	1.04483683	5.56412202
Ti	2.87127350	6.29968123	5.52972719
O	6.66415461	7.32047450	3.95797217
O	6.65609990	4.43830434	4.78633635
O	6.78860517	0.61277444	5.79074072
O	6.53574782	8.10562628	6.36933874
O	2.72518978	7.38801877	4.07971105
O	1.00730341	2.09197851	3.89061809
O	4.72994056	2.13817896	3.95423568
O	1.00197334	9.59589864	4.87090242
O	4.83799011	9.62939404	4.89219743
O	2.83835078	4.48035373	4.80284789
O	2.91410704	0.61352984	5.80131373
O	0.88602186	5.79779301	5.89868255
O	4.72350251	5.79436673	5.89062206
O	0.95303574	2.77238022	6.38630563
O	4.66374959	2.82100569	6.49862506
O	2.95853059	8.10310197	6.34178234
Ti	21.78658280	9.20147489	4.70627735
Ti	8.55017819	3.94565317	4.69596684
Ti	23.82352329	3.96978709	4.61467863
Ti	8.69927865	1.05925986	5.51370867
Ti	23.76074213	1.13733744	5.51733821
Ti	21.84025501	6.25995176	5.53224001
Ti	10.57278507	9.22300198	4.73949108
Ti	25.78276635	9.28314285	4.70221337
Ti	14.33690004	9.19109597	4.62765518
Ti	29.50054533	9.26170694	4.83071429
Ti	18.13370761	9.21028367	4.74697857
Ti	12.28499087	4.18738844	4.72650618
Ti	27.50621044	3.97519924	4.72547239
Ti	16.17755162	4.00136529	4.72225220
Ti	19.96100562	4.01814849	4.71546337
Ti	12.44248781	1.28348461	5.51549177
Ti	27.57463724	1.10185953	5.59681531
Ti	16.08080146	1.15012814	5.55125208
Ti	19.95466126	1.07852763	5.58558696
Ti	10.45401916	6.37663766	5.55069895
Ti	25.66019593	6.38537095	5.44078450
Ti	14.28274694	6.30967056	5.48270812
Ti	29.54666533	6.29272328	5.44030945
Ti	18.06370399	6.28604995	5.49480723
O	21.73010305	7.26396663	3.90463436
O	8.57945240	2.13788873	3.97530071
O	23.64840274	2.11653619	3.88781652
O	8.59418769	9.57959964	4.84130117
O	23.78911879	9.59326815	4.58518224
O	21.95395517	4.28967465	4.81043013
O	21.82374094	0.44264703	5.63795317
O	8.53898526	5.77145313	5.96532232
O	23.76499119	5.83980202	5.75563856
O	8.58618105	2.82346445	6.34436285
O	23.90630393	2.85095001	6.31311715
O	21.75749405	7.98898039	6.31836545
O	10.49424037	7.34882554	3.97117417
O	25.68331256	7.44289078	3.94867376
O	14.29045041	7.23491699	3.89986454
O	29.54797053	7.40138146	3.93356913
O	18.17169193	7.37687461	3.95522869
O	12.43468186	2.24189202	3.94945023
O	27.61472535	2.11945961	4.02781007
O	16.08351830	2.17336606	3.94883343
O	20.07811235	2.13590192	3.96488013
O	12.43506174	9.63957090	4.67723260
O	27.65671056	9.68196943	4.74998206
O	16.25623452	9.57779817	4.79894621
O	19.95492533	9.76653149	4.78897290
O	10.41418910	4.69332476	4.55520790
O	25.66506802	4.48295966	4.73826185
O	14.23374252	4.41308837	4.89954315
O	29.47430906	4.34860814	4.93766941
O	18.03438568	4.46111691	4.69983126
O	10.62331743	0.51079454	5.84775159
O	25.63349540	0.67658132	5.76028353
O	14.19813103	1.14836802	5.97246820
O	29.53890607	0.69529553	5.74148388
O	18.03054468	0.54048679	5.85717059
O	12.39028777	5.92723005	5.76560716
O	27.62007763	5.84247412	5.63843231
O	16.13436000	5.94341181	5.72394641
O	19.94059259	5.72637665	5.83020008
O	12.01353845	2.99868150	6.27828297
O	27.55661175	2.95942445	6.42587358
O	16.47542168	2.88362464	6.28829216
O	19.75866197	2.81590312	6.27945903
O	10.53263561	8.16294448	6.35917136
O	25.60719452	8.09281126	6.43669394
O	14.20992344	8.13135161	6.23861123
O	29.55586387	7.99735485	6.38135649
O	18.23071459	8.10203936	6.39838936
Ti	6.54794223	19.68434114	4.73210961
Ti	6.77341601	30.33658707	4.72260028
Ti	6.66490140	16.77305351	5.58033895
Ti	6.75556169	27.41319769	5.49680632
Ti	2.78140405	19.75054013	4.74919369
Ti	2.83601682	30.21712348	4.74376492
Ti	0.85378214	14.36599256	4.67473907
Ti	0.90120597	24.99380543	4.79831855
Ti	4.69309415	14.52592449	4.68859974
Ti	4.81781227	24.98418615	4.86561703
Ti	0.87095089	11.51239397	5.52293304
Ti	0.85832315	22.07857563	5.54802178
Ti	4.82043231	11.52157843	5.59523690
Ti	4.63475488	22.06263331	5.56713662
Ti	2.69774538	16.89165206	5.52369447
Ti	2.86073635	27.35473212	5.60022099
O	6.75824144	17.80446172	3.95542963
O	6.62038720	28.40420466	3.88797866
O	6.55263996	14.85601119	4.85811152
O	6.63003984	25.54383940	4.69818915
O	6.73814492	11.01270060	5.88766353
O	6.55562834	21.56438217	5.72101623
O	6.63197398	18.55017733	6.36703140
O	6.83610135	29.13972145	6.30844544
O	2.65496321	17.86426597	3.94029520
O	2.84425709	28.35295581	3.96963502
O	0.95526312	12.55235256	3.93316043
O	0.78823270	22.94639998	3.89934604
O	4.81859503	12.53867142	4.00634604
O	4.79041004	23.08815029	3.97267632
O	0.89066481	20.12561228	4.84858877
O	0.96268188	30.63476854	4.82296058
O	4.68271795	20.21700625	4.75686701
O	4.80931046	30.68443524	4.68304744
O	2.75149156	14.92472706	4.87505288
O	2.88336437	25.51371648	4.75042243
O	2.78378745	11.00021659	5.70757011
O	2.74591946	21.49037838	5.80650129
O	0.87308571	16.80802078	6.17092946
O	0.96039613	26.77966457	5.69185826
O	4.71301647	16.39224955	5.73453030
O	4.80513650	26.96939114	5.83109305
O	0.95854947	13.24279076	6.43526483
O	0.91402845	23.80089071	6.42485825
O	4.49837291	13.29910232	6.49739213
O	4.63740046	23.86288396	6.38601300
O	2.95898746	18.59896760	6.31434743
O	2.70794921	29.11931131	6.36852791
Ti	21.78437005	19.65977723	4.74511774
Ti	21.86825548	30.07946907	4.76464206
Ti	8.40650861	14.40061894	4.66493737
Ti	8.58130091	25.06821442	4.66361000
Ti	23.79270108	14.34654449	4.77179944
Ti	23.82852201	24.87711330	4.78796378
Ti	8.65676746	11.51059877	5.50440533
Ti	8.49840502	22.10254228	5.53328365
Ti	23.78851670	11.36777959	5.44526056
Ti	23.77779873	21.93810113	5.55331519
Ti	21.86899042	16.75236994	5.49226590
Ti	21.87090561	27.22316941	5.62883471
Ti	10.39033678	19.74315233	4.75467207
Ti	10.59639696	30.33194728	4.66892382
Ti	25.64698425	19.66136052	4.83658380
Ti	25.62041224	30.23038515	4.83522611
Ti	14.20947947	19.67514710	4.82308582
Ti	14.32827195	30.05721148	4.66132408
Ti	29.43380984	19.76100352	4.73570243
Ti	29.43557517	30.09449414	4.69481444
Ti	18.02179089	19.66582661	4.78985033
Ti	18.01118479	30.21364638	4.73637669
Ti	12.28091522	14.52710488	4.84835072
Ti	12.31269647	24.94581470	4.73197538
Ti	27.65394519	14.52883109	4.77681898
Ti	27.55397976	24.90809283	4.81721301
Ti	16.16785385	14.35782723	4.72904772
Ti	16.24927039	24.89637352	4.75558661
Ti	20.04163889	14.40224250	4.83804402
Ti	20.00439958	24.97338391	4.83190803
Ti	12.43445609	11.59042854	5.58686756
Ti	12.23605626	21.99624598	5.59045200
Ti	27.52286293	11.61292455	5.47984277
Ti	27.48184160	22.02955981	5.48994018
Ti	16.19406662	11.41518025	5.54434509
Ti	16.04775309	21.97693957	5.45909088
Ti	19.94808418	11.48993990	5.51357353
Ti	19.97124264	21.93241200	5.56032837
Ti	10.44969746	16.82767667	5.44136067
Ti	10.50914575	27.28896869	5.46332130
Ti	25.71037476	16.73242441	5.45870116
Ti	25.69978597	27.33482335	5.65438549
Ti	14.28364224	16.64943853	5.81662454
Ti	14.29184641	27.08488992	5.50637034
Ti	29.50312714	16.90595300	5.68551880
Ti	29.50755634	27.19340144	5.40090144
Ti	18.15524019	16.80392121	5.50686972
Ti	18.07854630	27.31864089	5.47979990
O	22.00414298	17.84685335	3.89811824
O	21.95797952	28.18587328	4.00188296
O	8.58542274	12.52985972	3.89975128
O	8.31020424	23.13580883	3.95029337
O	23.81827275	12.58304660	3.96702539
O	23.96416438	22.91274520	3.93806358
O	8.49170671	20.14253052	4.73919299
O	8.68573503	30.58630687	4.78118847
O	23.81312840	20.13307420	4.72983078
O	23.73975053	30.55634917	4.80558052
O	21.87951887	14.82469431	4.92322382
O	21.92166893	25.19565452	4.92171995
O	21.94652744	10.95248670	5.84152093
O	21.89921677	21.44389089	5.79836446
O	8.52679292	16.16496048	6.00097107
O	8.57670891	26.82194929	5.71874130
O	23.76677440	16.29146515	5.66091494
O	23.78378714	26.68358430	5.73198298
O	8.45709525	13.21459803	6.29764470
O	8.46641621	23.78113490	6.33514590
O	24.03429717	13.16722083	6.28827973
O	24.02069109	23.71400091	6.33140487
O	21.92656784	18.39518141	6.28898034
O	21.99109208	29.00839163	6.37102504
O	10.26259070	17.94487632	3.93392004
O	10.56606999	28.39181934	3.91399436
O	25.71395006	17.84915574	3.96044686
O	25.63902182	28.28406740	4.00938777
O	14.15660105	17.77942654	4.04686464
O	14.14201662	28.27217013	3.96081393
O	29.56055637	17.93796635	4.06982143
O	29.34722892	28.21185185	3.82308984
O	18.00792999	17.80783629	3.96150473
O	18.08693205	28.36418183	3.90903419
O	12.29703926	12.62787374	4.00381469
O	12.22469888	23.08732693	3.98030465
O	27.79545223	12.58436059	3.94503006
O	27.42729640	23.14742018	3.93743738
O	16.23185205	12.46744504	3.91559061
O	16.04193236	23.08934814	3.91138076
O	19.88227982	12.59819324	3.98257000
O	19.87601146	23.10450438	4.01862708
O	12.26209285	20.13409427	4.74048658
O	12.59326372	30.76772133	4.80493349
O	27.55146733	20.13956915	4.71736027
O	27.57639757	30.63944182	4.83001566
O	16.14537589	20.07060965	4.89768163
O	15.98163043	30.78862902	4.72122650
O	19.90668277	20.08132844	4.76147892
O	19.89283787	30.56567511	4.74051805
O	10.31416115	14.93292229	4.80350219
O	10.45500244	25.37916215	4.65330096
O	25.71730627	14.81012068	4.85982648
O	25.67322688	25.47361749	4.80270415
O	14.18685293	14.77350599	4.95308559
O	14.29140692	25.22694729	4.76170665
O	29.57841209	15.01210602	4.92653695
O	29.43854142	25.28897675	4.84732711
O	18.06247232	14.67520620	4.82338314
O	18.10683193	25.46107664	4.70553987
O	10.55501382	11.02694313	5.81211750
O	10.37101863	21.48192049	5.96882787
O	25.71135302	11.00022825	5.72584171
O	25.61765984	21.39880938	5.86114231
O	14.32131229	10.96738701	5.78456150
O	14.11357102	21.51283522	5.77049991
O	29.48918511	11.05315336	5.87653153
O	29.44690870	21.50312357	5.82648019
O	18.16867131	10.98522958	5.91464851
O	17.99772261	21.55088462	5.77151184
O	12.36851042	16.42294102	5.58521849
O	12.40301232	26.81801652	5.77500959
O	27.64967808	16.24025930	5.93457608
O	27.61399638	26.82322950	5.98695215
O	16.23223977	16.26334605	5.69169498
O	16.21671300	26.60889080	5.77048909
O	19.97852781	16.21354361	5.74645876
O	19.98336062	26.82785982	5.70973687
O	12.17952915	13.29595858	6.36680231
O	12.16346619	23.77434059	6.40730609
O	27.83983174	13.33422985	6.33996439
O	27.35465504	23.70789807	6.44092900
O	16.41185321	13.23150729	6.37249913
O	16.16777976	23.68608507	6.23443027
O	19.99781052	13.29633353	6.46176405
O	20.13436486	23.78920363	6.36528934
O	10.37018127	18.52120019	6.22569588
O	10.55819538	29.08244056	6.45737292
O	25.81574950	18.43992030	6.33651956
O	25.57744777	29.17290917	6.41633076
O	14.27934413	18.52783717	6.36029991
O	14.51878876	28.75144207	6.36106040
O	29.27237916	18.72344109	6.47767962
O	29.62151027	28.91320702	6.21660145
O	18.10580302	18.55115184	6.31342104
O	17.83407720	29.03559725	6.24918260
H	14.92151255	14.14463358	7.69636192
H	14.02009683	14.64971948	11.15978596
H	14.76428905	18.40793079	9.19673005
O	14.27527786	16.27063235	7.60427940
O	14.85509503	14.38595173	8.65967211
C	14.58695726	15.64513886	8.73149384
C	14.43081056	16.35718297	10.01531965
C	14.18460009	15.72199405	11.21150181
C	14.62947353	17.77044662	10.10425869
N	12.87169631	19.58636109	15.48843048
N	15.48686490	22.30396146	17.07446305
N	15.70116719	20.12573206	15.11848421
N	12.60155448	21.76023593	17.48714215
C	21.35989705	21.10476826	16.52933776
C	14.60695946	25.34317220	21.75914765
C	7.11714783	19.78576303	16.34083861
C	19.03464635	21.72603195	16.01104942
C	13.95491180	24.63767597	19.53609773
C	9.41211489	19.79376862	17.13426552
C	20.93245460	23.04514003	15.22125888
C	13.61227347	26.90895951	20.24903476
C	7.68313420	18.47851882	18.26154495
C	14.32920048	18.61478500	13.74927560
C	17.57076826	21.46209444	15.92765108
C	13.98133849	23.57162982	18.48795307
C	10.89564888	20.13763788	16.89414148
C	15.50117125	19.37258620	13.98513104
C	17.02084130	20.47573712	15.12699203
C	12.75984390	22.93502126	18.15328171
C	11.35095002	21.27534877	17.56140665
C	16.78358380	19.02681813	13.38127000
C	17.68610146	19.79551884	14.07597975
C	11.48267398	23.23083888	18.75463685
C	10.62304446	22.15461596	18.42472751
C	13.13407327	18.65810984	14.45672732
C	16.84132136	22.31629237	16.76162551
C	15.29425768	23.23780489	18.05776995
C	11.52714329	19.32046344	15.96735989
C	11.92889682	17.88133123	14.25141056
C	17.52260254	23.19540537	17.70337901
C	16.56050947	23.79109698	18.48126668
C	10.99857176	18.22622437	15.16414332
H	11.78591552	17.22233708	13.38007552
H	18.60307074	23.41295907	17.71415092
H	16.60200838	24.49928773	19.30697445
H	9.94087594	17.90232641	15.25888919
H	17.02081340	18.28808405	12.59046531
H	18.76311924	19.79519291	13.94644243
H	11.13817567	24.12813525	19.30247253
H	9.64593806	22.03235104	18.80643896
H	21.36963799	23.82110832	14.53390614
H	13.28402768	27.95351724	19.95160378
H	7.30266377	17.85508472	19.12071792
H	22.10000987	20.34053544	16.82012451
H	15.03971520	25.04893684	22.79392495
H	6.30743803	20.14246414	15.69258077
H	14.99257929	20.42111770	15.84016076
H	13.34481990	21.34935045	16.92572173
C	23.35710570	22.33532660	15.60172291
H	23.67935754	21.74409869	14.76138100
H	23.98166422	22.05968803	16.49177821
H	23.66853771	23.37567406	15.32859482
C	19.52563596	19.75331303	17.44097151
H	18.62798219	19.89581876	18.01756518
H	20.25528453	19.50063010	18.19708033
H	19.46411276	18.88535752	16.74278596
C	18.60940968	23.59655660	14.37927489
H	18.67001415	23.18440040	13.31932922
H	18.78930570	24.69189285	14.32745511
H	17.52963267	23.49343517	14.59507591
C	9.92190618	18.45447582	19.31934441
H	10.26104591	17.40672580	19.06442655
H	9.42358209	18.38195786	20.27616604
H	10.82173044	19.09070611	19.41984154
C	8.71569516	21.31634547	15.19735933
H	9.65832773	21.83938065	15.43276381
H	7.89003810	22.01480473	15.14542337
H	8.76450643	20.77499410	14.27334550
C	5.34849984	18.35427679	17.28620675
H	4.98689072	18.00334650	16.26762605
H	4.58414654	19.18197797	17.55110056
H	5.14895777	17.59813647	18.00782111
C	12.95437233	26.30154888	17.84946197
H	12.40183934	25.40116545	17.48039634
H	13.82061187	26.49221361	17.18689258
H	12.30258285	27.15446429	17.79511364
C	14.87509824	22.96775022	21.10985739
H	15.18442438	23.02286120	22.18280834
H	15.73030673	22.69810758	20.50241465
H	14.03774219	22.23815521	21.06319005
C	14.24885950	27.67052771	22.58371688
H	15.09501622	27.42049175	23.22839995
H	13.32399185	27.62878907	23.17879565
H	14.29844761	28.68147869	22.14661802
C	21.89533751	22.17241229	15.82576926
C	19.97202274	20.92203424	16.70855053
C	19.52440697	22.80614718	15.23186878
C	13.49962122	25.94523680	19.24404683
C	14.50802490	24.36502170	20.75388399
C	14.14623390	26.65416602	21.49793534
C	9.00626053	18.93192580	18.23229112
C	8.43840603	20.29460289	16.29774093
C	6.76055600	18.81106323	17.26594543
H	14.16200540	15.79814550	13.32608276
H	14.64037073	19.60281095	11.22090358
C	14.32904053	17.79412084	12.51020161
C	14.18674998	16.43803952	12.40880535
C	14.55434097	18.47706519	11.28239246

Ti O H C N 0
6-31G*
****

