%chk=f00010748.chk
%mem=24GB
%nproc=12
#p b3lyp/6-31G*

title

0 1
Ti	2.81187400	0.19704000	1.10336000
Ti	0.90594400	5.44057000	1.10336000
Ti	4.71781400	5.44057000	1.10336000
Ti	0.90594400	2.47241000	1.99114000
Ti	4.71781400	2.47241000	1.99114000
Ti	2.81187400	7.71594000	1.99115000
O	2.81187400	8.81302000	0.37332000
O	0.90594400	3.56949000	0.37332000
O	4.71781400	3.56949000	0.37332000
O	0.90594400	0.60134000	1.26110000
O	4.71781400	0.60134000	1.26110000
O	2.81187400	5.84486000	1.26111000
O	2.81187400	2.06812000	1.83340000
O	0.90594400	7.31164000	1.83340000
O	4.71781400	7.31164000	1.83340000
O	0.90594400	4.34349000	2.72118000
O	4.71781400	4.34349000	2.72118000
O	2.81187400	9.58701000	2.72118000
Ti	6.62374588	0.19704000	1.10336000
Ti	21.87123776	0.19704000	1.10336000
Ti	8.52968588	5.44057000	1.10336000
Ti	23.77717776	5.44057000	1.10336000
Ti	8.52968588	2.47241000	1.99114000
Ti	23.77717776	2.47241000	1.99114000
Ti	6.62374588	7.71594000	1.99115000
Ti	21.87123776	7.71594000	1.99115000
Ti	10.43561588	0.19704000	1.10336000
Ti	25.68310776	0.19704000	1.10336000
Ti	14.24749588	0.19704000	1.10336000
Ti	29.49498776	0.19704000	1.10336000
Ti	18.05936588	0.19704000	1.10336000
Ti	12.34155588	5.44057000	1.10336000
Ti	27.58904776	5.44057000	1.10336000
Ti	16.15343588	5.44057000	1.10336000
Ti	19.96530588	5.44057000	1.10336000
Ti	12.34155588	2.47241000	1.99114000
Ti	27.58904776	2.47241000	1.99114000
Ti	16.15343588	2.47241000	1.99114000
Ti	19.96530588	2.47241000	1.99114000
Ti	10.43561588	7.71594000	1.99115000
Ti	25.68310776	7.71594000	1.99115000
Ti	14.24749588	7.71594000	1.99115000
Ti	29.49498776	7.71594000	1.99115000
Ti	18.05936588	7.71594000	1.99115000
O	6.62374588	8.81302000	0.37332000
O	21.87123776	8.81302000	0.37332000
O	8.52968588	3.56949000	0.37332000
O	23.77717776	3.56949000	0.37332000
O	8.52968588	0.60134000	1.26110000
O	23.77717776	0.60134000	1.26110000
O	6.62374588	5.84486000	1.26111000
O	21.87123776	5.84486000	1.26111000
O	6.62374588	2.06812000	1.83340000
O	21.87123776	2.06812000	1.83340000
O	8.52968588	7.31164000	1.83340000
O	23.77717776	7.31164000	1.83340000
O	8.52968588	4.34349000	2.72118000
O	23.77717776	4.34349000	2.72118000
O	6.62374588	9.58701000	2.72118000
O	21.87123776	9.58701000	2.72118000
O	10.43561588	8.81302000	0.37332000
O	25.68310776	8.81302000	0.37332000
O	14.24749588	8.81302000	0.37332000
O	29.49498776	8.81302000	0.37332000
O	18.05936588	8.81302000	0.37332000
O	12.34155588	3.56949000	0.37332000
O	27.58904776	3.56949000	0.37332000
O	16.15343588	3.56949000	0.37332000
O	19.96530588	3.56949000	0.37332000
O	12.34155588	0.60134000	1.26110000
O	27.58904776	0.60134000	1.26110000
O	16.15343588	0.60134000	1.26110000
O	19.96530588	0.60134000	1.26110000
O	10.43561588	5.84486000	1.26111000
O	25.68310776	5.84486000	1.26111000
O	14.24749588	5.84486000	1.26111000
O	29.49498776	5.84486000	1.26111000
O	18.05936588	5.84486000	1.26111000
O	10.43561588	2.06812000	1.83340000
O	25.68310776	2.06812000	1.83340000
O	14.24749588	2.06812000	1.83340000
O	29.49498776	2.06812000	1.83340000
O	18.05936588	2.06812000	1.83340000
O	12.34155588	7.31164000	1.83340000
O	27.58904776	7.31164000	1.83340000
O	16.15343588	7.31164000	1.83340000
O	19.96530588	7.31164000	1.83340000
O	12.34155588	4.34349000	2.72118000
O	27.58904776	4.34349000	2.72118000
O	16.15343588	4.34349000	2.72118000
O	19.96530588	4.34349000	2.72118000
O	10.43561588	9.58701000	2.72118000
O	25.68310776	9.58701000	2.72118000
O	14.24749588	9.58701000	2.72118000
O	29.49498776	9.58701000	2.72118000
O	18.05936588	9.58701000	2.72118000
Ti	2.81187400	10.68408607	1.10336000
Ti	2.81187400	21.17113214	1.10336000
Ti	0.90594400	15.92761607	1.10336000
Ti	0.90594400	26.41466214	1.10336000
Ti	4.71781400	15.92761607	1.10336000
Ti	4.71781400	26.41466214	1.10336000
Ti	0.90594400	12.95945607	1.99114000
Ti	0.90594400	23.44650214	1.99114000
Ti	4.71781400	12.95945607	1.99114000
Ti	4.71781400	23.44650214	1.99114000
Ti	2.81187400	18.20298607	1.99115000
Ti	2.81187400	28.69003214	1.99115000
O	2.81187400	19.30006607	0.37332000
O	2.81187400	29.78711214	0.37332000
O	0.90594400	14.05653607	0.37332000
O	0.90594400	24.54358214	0.37332000
O	4.71781400	14.05653607	0.37332000
O	4.71781400	24.54358214	0.37332000
O	0.90594400	11.08838607	1.26110000
O	0.90594400	21.57543214	1.26110000
O	4.71781400	11.08838607	1.26110000
O	4.71781400	21.57543214	1.26110000
O	2.81187400	16.33190607	1.26111000
O	2.81187400	26.81895214	1.26111000
O	2.81187400	12.55516607	1.83340000
O	2.81187400	23.04221214	1.83340000
O	0.90594400	17.79868607	1.83340000
O	0.90594400	28.28573214	1.83340000
O	4.71781400	17.79868607	1.83340000
O	4.71781400	28.28573214	1.83340000
O	0.90594400	14.83053607	2.72118000
O	0.90594400	25.31758214	2.72118000
O	4.71781400	14.83053607	2.72118000
O	4.71781400	25.31758214	2.72118000
O	2.81187400	20.07405607	2.72118000
O	2.81187400	30.56110214	2.72118000
Ti	6.62374588	10.68408607	1.10336000
Ti	6.62374588	21.17113214	1.10336000
Ti	21.87123776	10.68408607	1.10336000
Ti	21.87123776	21.17113214	1.10336000
Ti	8.52968588	15.92761607	1.10336000
Ti	8.52968588	26.41466214	1.10336000
Ti	23.77717776	15.92761607	1.10336000
Ti	23.77717776	26.41466214	1.10336000
Ti	8.52968588	12.95945607	1.99114000
Ti	8.52968588	23.44650214	1.99114000
Ti	23.77717776	12.95945607	1.99114000
Ti	23.77717776	23.44650214	1.99114000
Ti	6.62374588	18.20298607	1.99115000
Ti	6.62374588	28.69003214	1.99115000
Ti	21.87123776	18.20298607	1.99115000
Ti	21.87123776	28.69003214	1.99115000
Ti	10.43561588	10.68408607	1.10336000
Ti	10.43561588	21.17113214	1.10336000
Ti	25.68310776	10.68408607	1.10336000
Ti	25.68310776	21.17113214	1.10336000
Ti	14.24749588	10.68408607	1.10336000
Ti	14.24749588	21.17113214	1.10336000
Ti	29.49498776	10.68408607	1.10336000
Ti	29.49498776	21.17113214	1.10336000
Ti	18.05936588	10.68408607	1.10336000
Ti	18.05936588	21.17113214	1.10336000
Ti	12.34155588	15.92761607	1.10336000
Ti	12.34155588	26.41466214	1.10336000
Ti	27.58904776	15.92761607	1.10336000
Ti	27.58904776	26.41466214	1.10336000
Ti	16.15343588	15.92761607	1.10336000
Ti	16.15343588	26.41466214	1.10336000
Ti	19.96530588	15.92761607	1.10336000
Ti	19.96530588	26.41466214	1.10336000
Ti	12.34155588	12.95945607	1.99114000
Ti	12.34155588	23.44650214	1.99114000
Ti	27.58904776	12.95945607	1.99114000
Ti	27.58904776	23.44650214	1.99114000
Ti	16.15343588	12.95945607	1.99114000
Ti	16.15343588	23.44650214	1.99114000
Ti	19.96530588	12.95945607	1.99114000
Ti	19.96530588	23.44650214	1.99114000
Ti	10.43561588	18.20298607	1.99115000
Ti	10.43561588	28.69003214	1.99115000
Ti	25.68310776	18.20298607	1.99115000
Ti	25.68310776	28.69003214	1.99115000
Ti	14.24749588	18.20298607	1.99115000
Ti	14.24749588	28.69003214	1.99115000
Ti	29.49498776	18.20298607	1.99115000
Ti	29.49498776	28.69003214	1.99115000
Ti	18.05936588	18.20298607	1.99115000
Ti	18.05936588	28.69003214	1.99115000
O	6.62374588	19.30006607	0.37332000
O	6.62374588	29.78711214	0.37332000
O	21.87123776	19.30006607	0.37332000
O	21.87123776	29.78711214	0.37332000
O	8.52968588	14.05653607	0.37332000
O	8.52968588	24.54358214	0.37332000
O	23.77717776	14.05653607	0.37332000
O	23.77717776	24.54358214	0.37332000
O	8.52968588	11.08838607	1.26110000
O	8.52968588	21.57543214	1.26110000
O	23.77717776	11.08838607	1.26110000
O	23.77717776	21.57543214	1.26110000
O	6.62374588	16.33190607	1.26111000
O	6.62374588	26.81895214	1.26111000
O	21.87123776	16.33190607	1.26111000
O	21.87123776	26.81895214	1.26111000
O	6.62374588	12.55516607	1.83340000
O	6.62374588	23.04221214	1.83340000
O	21.87123776	12.55516607	1.83340000
O	21.87123776	23.04221214	1.83340000
O	8.52968588	17.79868607	1.83340000
O	8.52968588	28.28573214	1.83340000
O	23.77717776	17.79868607	1.83340000
O	23.77717776	28.28573214	1.83340000
O	8.52968588	14.83053607	2.72118000
O	8.52968588	25.31758214	2.72118000
O	23.77717776	14.83053607	2.72118000
O	23.77717776	25.31758214	2.72118000
O	6.62374588	20.07405607	2.72118000
O	6.62374588	30.56110214	2.72118000
O	21.87123776	20.07405607	2.72118000
O	21.87123776	30.56110214	2.72118000
O	10.43561588	19.30006607	0.37332000
O	10.43561588	29.78711214	0.37332000
O	25.68310776	19.30006607	0.37332000
O	25.68310776	29.78711214	0.37332000
O	14.24749588	19.30006607	0.37332000
O	14.24749588	29.78711214	0.37332000
O	29.49498776	19.30006607	0.37332000
O	29.49498776	29.78711214	0.37332000
O	18.05936588	19.30006607	0.37332000
O	18.05936588	29.78711214	0.37332000
O	12.34155588	14.05653607	0.37332000
O	12.34155588	24.54358214	0.37332000
O	27.58904776	14.05653607	0.37332000
O	27.58904776	24.54358214	0.37332000
O	16.15343588	14.05653607	0.37332000
O	16.15343588	24.54358214	0.37332000
O	19.96530588	14.05653607	0.37332000
O	19.96530588	24.54358214	0.37332000
O	12.34155588	11.08838607	1.26110000
O	12.34155588	21.57543214	1.26110000
O	27.58904776	11.08838607	1.26110000
O	27.58904776	21.57543214	1.26110000
O	16.15343588	11.08838607	1.26110000
O	16.15343588	21.57543214	1.26110000
O	19.96530588	11.08838607	1.26110000
O	19.96530588	21.57543214	1.26110000
O	10.43561588	16.33190607	1.26111000
O	10.43561588	26.81895214	1.26111000
O	25.68310776	16.33190607	1.26111000
O	25.68310776	26.81895214	1.26111000
O	14.24749588	16.33190607	1.26111000
O	14.24749588	26.81895214	1.26111000
O	29.49498776	16.33190607	1.26111000
O	29.49498776	26.81895214	1.26111000
O	18.05936588	16.33190607	1.26111000
O	18.05936588	26.81895214	1.26111000
O	10.43561588	12.55516607	1.83340000
O	10.43561588	23.04221214	1.83340000
O	25.68310776	12.55516607	1.83340000
O	25.68310776	23.04221214	1.83340000
O	14.24749588	12.55516607	1.83340000
O	14.24749588	23.04221214	1.83340000
O	29.49498776	12.55516607	1.83340000
O	29.49498776	23.04221214	1.83340000
O	18.05936588	12.55516607	1.83340000
O	18.05936588	23.04221214	1.83340000
O	12.34155588	17.79868607	1.83340000
O	12.34155588	28.28573214	1.83340000
O	27.58904776	17.79868607	1.83340000
O	27.58904776	28.28573214	1.83340000
O	16.15343588	17.79868607	1.83340000
O	16.15343588	28.28573214	1.83340000
O	19.96530588	17.79868607	1.83340000
O	19.96530588	28.28573214	1.83340000
O	12.34155588	14.83053607	2.72118000
O	12.34155588	25.31758214	2.72118000
O	27.58904776	14.83053607	2.72118000
O	27.58904776	25.31758214	2.72118000
O	16.15343588	14.83053607	2.72118000
O	16.15343588	25.31758214	2.72118000
O	19.96530588	14.83053607	2.72118000
O	19.96530588	25.31758214	2.72118000
O	10.43561588	20.07405607	2.72118000
O	10.43561588	30.56110214	2.72118000
O	25.68310776	20.07405607	2.72118000
O	25.68310776	30.56110214	2.72118000
O	14.24749588	20.07405607	2.72118000
O	14.24749588	30.56110214	2.72118000
O	29.49498776	20.07405607	2.72118000
O	29.49498776	30.56110214	2.72118000
O	18.05936588	20.07405607	2.72118000
O	18.05936588	30.56110214	2.72118000
Ti	6.63140345	9.18059100	4.77209136
Ti	6.64679523	6.35100133	5.63660888
Ti	2.84144517	9.26892162	4.75534468
Ti	0.97401986	3.90346881	4.75984263
Ti	4.66402493	4.04469318	4.67775581
Ti	0.93130692	0.96855826	5.49643952
Ti	4.59640235	1.09082446	5.46276059
Ti	2.85704354	6.37352754	5.47928800
O	6.61588176	7.41219684	4.01451032
O	6.64142875	4.46113262	4.73906120
O	6.43920554	0.44669809	5.83155998
O	6.60074608	8.12319946	6.50639389
O	2.92672400	7.36318826	3.97304715
O	1.05801836	2.04537015	3.93359542
O	4.67578289	2.06245504	3.94333325
O	0.87350363	9.68280497	4.64799482
O	4.74783937	9.72548784	4.80557286
O	2.80800283	4.35414193	4.81674245
O	2.83835052	0.49852200	5.93971284
O	0.97054685	5.87971092	5.85625679
O	4.76730982	5.87991635	5.74371239
O	0.87361074	2.72613849	6.35763772
O	4.63381337	2.76245731	6.32483749
O	2.83866001	8.08272091	6.34679558
Ti	21.71296798	9.26672144	4.91771955
Ti	8.50445317	3.88953059	4.84155618
Ti	23.79108789	3.97555676	4.71457914
Ti	8.43730051	0.97090602	5.60621980
Ti	23.62859943	1.12985955	5.59137195
Ti	21.84921623	6.28137707	5.61286240
Ti	10.56657617	9.18584769	4.80698923
Ti	25.53989089	9.15687655	4.66518229
Ti	14.21009045	9.12713055	4.76042155
Ti	29.44806476	9.21078712	4.79302677
Ti	18.04688974	9.23326459	4.78751927
Ti	12.31962705	3.94743947	4.80216520
Ti	27.63819622	3.95686787	4.77328221
Ti	16.07132765	3.97729375	4.82277456
Ti	20.01361703	3.91300813	4.71723314
Ti	12.21851886	1.02950653	5.49661506
Ti	27.58341803	1.00251039	5.50309697
Ti	16.12161993	1.02181611	5.47275369
Ti	19.88511603	1.07781759	5.65218039
Ti	10.45702031	6.25665940	5.43152287
Ti	25.70032644	6.31246191	5.58731429
Ti	14.23236877	6.22950138	5.54058520
Ti	29.40835717	6.31359179	5.51285081
Ti	18.06503412	6.29630544	5.49754283
O	21.76445773	7.22312993	3.91733307
O	8.37929975	1.99670142	3.99124864
O	23.59870888	2.10137799	3.95048585
O	8.55096898	9.46859528	4.82389688
O	23.70538598	9.50865351	4.83867152
O	21.88614002	4.26054483	4.86727358
O	21.81109349	0.53113472	5.99431679
O	8.60130065	5.77993989	5.72758425
O	23.78708171	5.79185116	5.80389163
O	8.41685548	2.76459966	6.45835918
O	23.87898677	2.89357239	6.41536286
O	21.47510550	8.05396065	6.24687718
O	10.54877021	7.36639837	3.93745843
O	25.55872357	7.33023775	3.94794694
O	14.16172081	7.31144686	3.94619532
O	29.40281609	7.43163421	3.98807454
O	18.27078547	7.43489655	3.94769745
O	12.22468397	2.11287240	3.97815170
O	27.71064783	2.11501257	3.96397107
O	16.04163287	2.08869762	3.87983473
O	19.94626722	2.01169969	3.86545337
O	12.40766583	9.69180231	4.69701344
O	27.56530592	9.52403103	4.96486876
O	16.10622118	9.73784693	4.88223500
O	19.83963636	9.67967100	4.98622369
O	10.39707084	4.38752530	4.67603446
O	25.72551625	4.41688564	4.63860620
O	14.22883265	4.36618038	4.84343947
O	29.59015909	4.44933107	4.84019496
O	18.01915689	4.41922801	4.68360237
O	10.36069753	0.56877854	5.72892022
O	25.56945781	0.74396444	5.71868996
O	14.25531323	0.58262502	5.73052648
O	29.54444820	0.59996100	5.72321221
O	17.87633776	0.52073948	5.89066921
O	12.30409167	5.73742043	5.78828571
O	27.62187381	5.73974103	5.87593410
O	16.10677236	5.78739221	5.74380218
O	19.93234701	5.70205925	5.69544761
O	12.33549427	2.72571922	6.42217061
O	27.46394549	2.86432118	6.43895135
O	16.11851406	2.72440575	6.33304000
O	19.97916609	2.78003156	6.38800227
O	10.57525729	8.00667267	6.23992922
O	25.50903761	8.06144678	6.48925269
O	14.07621594	8.08741038	6.31704610
O	29.42109841	8.07365852	6.31835261
O	17.94762547	7.91863044	6.32727657
Ti	6.64517855	19.74659964	4.80488163
Ti	6.50904271	30.20361417	4.86615157
Ti	6.66016294	16.79354842	5.37680068
Ti	6.65519128	27.31996758	5.58262114
Ti	2.75638471	19.73125019	4.80610470
Ti	2.79184109	30.23040495	4.86086130
Ti	0.85532115	14.48961211	4.82645043
Ti	0.87542006	24.99599174	4.83637934
Ti	4.73422227	14.39745707	4.82389273
Ti	4.81164403	24.97901837	4.73624872
Ti	0.86237067	11.55180050	5.47613101
Ti	0.92632777	22.04380675	5.53498493
Ti	4.69607279	11.49467235	5.54281364
Ti	4.77429351	22.04221441	5.60878617
Ti	2.85207945	16.81090731	5.50187671
Ti	2.82091396	27.25756630	5.43970781
O	6.71385360	17.93927718	3.93608025
O	6.57421361	28.27729561	3.97042741
O	6.69002370	14.87359816	4.73561117
O	6.59074818	25.44629594	4.91336531
O	6.64055773	11.01074725	5.83164504
O	6.62954838	21.49040602	5.85379749
O	6.68423531	18.55466990	6.32593066
O	6.76544214	29.06648784	6.36189723
O	2.71080795	17.90405090	3.95927147
O	2.92248978	28.40346526	3.85750996
O	0.96244525	12.63790324	3.99970613
O	0.78206422	23.15404269	4.00141668
O	4.61285330	12.59592680	3.94664427
O	4.79001697	23.09169676	3.91966489
O	0.84051952	20.15454361	4.73481069
O	0.94682878	30.57344177	4.70547999
O	4.70312591	20.29965288	4.70198932
O	4.67301677	30.58309968	4.71507009
O	2.84017554	14.87090938	4.90614541
O	2.81867869	25.41516197	4.69612052
O	2.78751502	11.01449338	5.90466001
O	2.75370962	21.48922076	5.78393710
O	0.86273976	16.40782797	5.75643143
O	0.91830182	26.82292001	5.55036894
O	4.77456146	16.37800072	5.80365806
O	4.76872561	26.82653812	5.75756399
O	1.05012276	13.34390144	6.43134489
O	1.11135843	23.85469392	6.36826707
O	4.87583949	13.22633351	6.38522815
O	4.93508255	23.76667147	6.37690146
O	3.06076097	18.57508822	6.34193384
O	2.72796157	28.91185983	6.37360533
Ti	21.92002717	19.67296700	4.81878716
Ti	21.85403853	30.26016892	4.85676620
Ti	8.56411178	14.46240926	4.79521815
Ti	8.46041178	24.91329221	4.79008617
Ti	23.85154235	14.49850055	4.87703522
Ti	23.72768057	24.93155193	4.87654337
Ti	8.41741722	11.46796690	5.36826525
Ti	8.52872289	21.97350121	5.53588104
Ti	23.75058611	11.51673035	5.50368641
Ti	23.82276661	21.98358539	5.43283578
Ti	21.95168278	16.73757008	5.51361839
Ti	21.84536948	27.36357119	5.52529931
Ti	10.46361457	19.73876357	4.76690216
Ti	10.39110607	30.24295857	4.73890999
Ti	25.75014297	19.76772779	4.84605965
Ti	25.61342781	30.23063670	4.71220766
Ti	14.22390466	19.72081495	4.86656660
Ti	14.19969280	30.17583935	4.67446781
Ti	29.45504420	19.75501365	4.71555476
Ti	29.55669187	30.24918621	4.71751749
Ti	18.10101301	19.72704803	4.80039781
Ti	18.07676829	30.14564622	4.68686750
Ti	12.39254589	14.52276710	4.73665444
Ti	12.24691417	25.00683371	4.66925623
Ti	27.57137771	14.49538685	4.73315907
Ti	27.48077692	25.06224035	4.72170479
Ti	16.16979636	14.51166746	4.56474743
Ti	16.10172416	24.93365964	4.71671935
Ti	20.10742377	14.48624203	4.65425303
Ti	19.99810067	24.93021883	4.75257954
Ti	12.42944857	11.53796624	5.39199342
Ti	12.27013789	22.16811347	5.53591123
Ti	27.51659518	11.51906290	5.36365057
Ti	27.63497562	22.16973477	5.56109214
Ti	16.16244760	11.62081489	5.50049603
Ti	16.18664967	22.04393646	5.47608802
Ti	19.89631752	11.65218610	5.48478132
Ti	20.04276417	22.02255058	5.47248854
Ti	10.39645539	16.79065410	5.49626809
Ti	10.50255335	27.41241832	5.44393338
Ti	25.67977936	16.79018169	5.49346505
Ti	25.60785287	27.32446787	5.41658014
Ti	14.34453104	16.70820554	5.79113471
Ti	14.28838445	27.35775652	5.56038417
Ti	29.45121654	16.81124748	5.48033712
Ti	29.57574110	27.36109319	5.44549101
Ti	18.20468974	16.77428885	5.38095846
Ti	17.93453993	27.23939695	5.45858836
O	21.82273015	17.88252000	3.96807852
O	21.81010952	28.31126377	3.93141534
O	8.46937918	12.51312251	3.85691547
O	8.55679589	22.97249478	3.91267320
O	23.83306252	12.71565398	3.97288941
O	23.85073682	23.16736437	3.96779809
O	8.62421628	20.10405396	4.92078613
O	8.44324827	30.63961260	4.69359970
O	23.81771161	20.17259112	4.65109254
O	23.72127306	30.73127630	4.82271859
O	21.93872693	15.00978169	4.64305576
O	21.80692815	25.43189292	4.73343382
O	21.83192110	11.08457925	5.83356876
O	21.78806564	21.51869718	5.89968365
O	8.47667932	16.32427862	5.72710259
O	8.57951994	26.79452836	5.79626877
O	23.85865853	16.22635326	5.93882559
O	23.55487968	26.71436081	5.96705407
O	8.66889970	13.12340492	6.33120879
O	8.52877078	23.77766055	6.33844629
O	23.65893282	13.20304450	6.39656537
O	23.80243368	23.72781063	6.36592701
O	22.22543533	18.51878445	6.37575747
O	21.58625894	29.13547294	6.37446091
O	10.35935373	17.86293981	3.97479428
O	10.43027634	28.44604388	3.91310196
O	25.83339796	17.87425149	3.93057110
O	25.43629997	28.31910835	3.83587436
O	14.14247244	17.91405747	3.98764281
O	14.23477777	28.32235327	3.98356049
O	29.46792727	17.88547844	3.90935372
O	29.62581487	28.39768319	3.95405274
O	18.01836326	17.70189410	3.82513717
O	18.16407179	28.35514587	3.94338669
O	12.32127813	12.62951675	3.92760840
O	12.40433565	23.08486265	3.87779971
O	27.64913759	12.57445314	3.86289331
O	27.43136998	23.20693787	4.00880146
O	16.25003311	12.65858126	3.87803019
O	16.31414920	22.99284265	3.86950093
O	20.11178710	12.55159451	3.91759394
O	20.07167286	23.06303057	3.87788501
O	12.34252163	20.11292447	4.95705982
O	12.30121257	30.62487534	4.75348806
O	27.58630508	20.30644720	4.70855861
O	27.47810390	30.60775372	4.95792436
O	16.18740752	20.11006378	4.83459674
O	16.13598051	30.63726471	4.68641927
O	20.08484114	20.12157758	4.83448048
O	19.97137570	30.81860938	4.56975055
O	10.47569615	14.88232460	4.97889787
O	10.34696878	25.54275094	4.62937229
O	25.70588750	14.91568812	4.68738926
O	25.53864302	25.43449680	4.79942571
O	14.33527910	14.93722633	4.79784248
O	14.25622124	25.36310832	4.74389611
O	29.49763734	14.92540971	4.70858826
O	29.40643597	25.41403927	5.06362398
O	18.14439922	14.84506275	4.88815382
O	18.02992740	25.41245788	4.70687371
O	10.47714305	11.00991183	5.70858502
O	10.35784258	21.58542090	5.78593777
O	25.58254915	11.01292948	5.46678349
O	25.69233900	21.52816260	5.96519956
O	14.27433992	11.17660908	5.78373324
O	14.17966707	21.66173025	5.64308391
O	29.46095625	11.13878042	5.67662294
O	29.50260750	21.53659460	5.73830793
O	18.03568259	11.25121254	5.88368736
O	18.10846673	21.55165747	5.66809601
O	12.34196094	16.37181205	5.63446657
O	12.33152010	26.78022880	5.79767458
O	27.54266554	16.31449566	5.66390827
O	27.49134543	27.02823445	5.61524981
O	16.29445885	16.38881908	5.59754540
O	16.08059701	26.76586694	5.63574158
O	20.07347156	16.18801448	5.69902012
O	19.92266052	26.84194269	5.73625851
O	12.48307723	13.33629473	6.35010703
O	12.40175250	23.88469709	6.31574398
O	27.46786897	13.21212292	6.40195798
O	27.64915355	23.83974513	6.42876430
O	16.12807438	13.47844334	6.33927673
O	16.20962282	23.78018973	6.38533476
O	20.11922413	13.38898955	6.30593869
O	19.95088138	23.80064901	6.32387972
O	10.29897749	18.60876918	6.40814141
O	10.08558975	29.16042114	6.32031165
O	25.75995337	18.62529331	6.40560047
O	25.59823811	29.08419037	6.30283193
O	14.39323938	18.68251182	6.38325980
O	13.94843130	29.02072847	6.31755198
O	29.60994822	18.54094207	6.40803749
O	29.73833397	29.16019749	6.31574835
O	18.16647655	18.52847789	6.28326772
O	18.01178394	29.05976337	6.32281496
H	14.53208828	13.91388933	8.13564903
H	13.72189562	15.07176505	11.22569402
H	14.18847075	18.44828068	8.63612452
O	14.42367008	16.05078171	7.53939021
O	14.21782816	14.33806884	8.95286561
C	14.31461399	15.62267536	8.81016676
C	14.08317810	16.61467233	9.87327302
C	13.79351326	16.13403992	11.12841506
C	14.06163694	18.02549448	9.65516565
N	12.93538220	19.53688682	15.49362615
N	15.55901221	22.51294692	17.09236609
N	14.89366327	21.23494407	14.35206947
N	13.37871728	21.01563858	18.23283757
C	20.15397799	23.86873613	13.45875163
C	16.45687043	23.43284382	22.88024230
C	8.26259054	18.24946969	18.93319514
C	17.84630546	23.71309733	14.23743857
C	15.18752495	23.18920997	20.79167098
C	10.60417012	18.47650686	18.32703159
C	18.57375740	25.55518449	12.74481958
C	15.02722822	25.17339299	22.10886810
C	9.73955068	16.31496604	19.03943247
C	13.87655512	19.20576570	13.27088224
C	16.70524614	22.96223821	14.90053125
C	15.00193446	22.48962146	19.51064377
C	11.63836749	19.26934680	17.62008955
C	14.69780681	20.35058367	13.33638062
C	16.00965035	22.03813652	14.09911120
C	13.88860047	21.60212391	19.35886071
C	12.39275214	20.11747822	18.47863138
C	15.70975410	20.64971471	12.36146477
C	16.46882150	21.71748584	12.79837162
C	13.05344024	21.10359127	20.43063166
C	12.18626589	20.16192320	19.89544608
C	12.84072641	18.97226766	14.25680612
C	16.53455578	23.12515373	16.29704211
C	15.77502367	22.95545971	18.41032910
C	11.85989139	19.03629158	16.24732974
C	11.67642988	18.10071242	14.14917680
C	17.36966420	23.99204435	17.11436681
C	16.89677902	23.87198104	18.40015470
C	11.05685203	18.14159163	15.42308137
H	11.30064626	17.53693531	13.31727415
H	18.24098327	24.55161885	16.75317476
H	17.31506524	24.40945164	19.26287201
H	10.07799051	17.77223692	15.67275936
H	15.88415309	20.05610047	11.44040609
H	17.46056600	22.11305868	12.40168876
H	13.17920002	21.51370222	21.43528549
H	11.47018472	19.57248234	20.43434053
H	18.29109815	26.50538248	12.22808668
H	14.52827421	26.15007278	22.24837022
H	9.98512006	15.29940661	19.27889153
H	21.12616046	23.38671288	13.31327908
H	17.16538098	22.96823912	23.55844825
H	7.24033801	18.63007073	19.14890635
H	14.32581049	21.27625735	15.19959996
H	13.88933702	21.10170581	17.33961513
C	20.89667342	25.78694902	11.95789589
H	20.68780747	25.55462185	10.92735649
H	21.94442314	25.46357299	12.19424364
H	20.91125118	26.90871016	12.06258082
C	19.48075840	21.86268740	14.82071286
H	18.59123090	21.23747633	15.01229782
H	19.85508204	22.10126926	15.84379202
H	20.28684930	21.36016878	14.31525990
C	16.12927233	25.34369255	13.44466924
H	15.83940816	25.92016996	12.53407098
H	16.04171083	26.03268460	14.28357367
H	15.48279536	24.46990444	13.67628256
C	12.05011145	16.39604653	18.10257360
H	11.96336434	15.30858280	18.26561449
H	12.85179647	16.72249311	18.74872216
H	12.37175270	16.68792940	17.07950052
C	9.13607904	20.48352479	18.13213069
H	9.03842790	20.50318143	17.01765444
H	10.00904253	21.11010145	18.41895374
H	8.19467026	20.90674244	18.51626597
C	7.37167778	16.04516541	19.79931463
H	6.45866023	16.20177618	19.19232439
H	7.15746562	16.29765289	20.84349444
H	7.72579327	15.02280074	19.68749233
C	13.52197238	24.91889148	20.11235760
H	12.71234559	24.19227792	20.05038931
H	13.87153147	25.08976190	19.10510149
H	13.11123953	25.93608754	20.39199454
C	16.90251047	21.40243830	21.37540870
H	17.60668089	21.27060254	22.16731932
H	17.51539466	21.50190274	20.45581493
H	16.23150689	20.54384822	21.26097144
C	16.16083941	25.42131807	24.31949501
H	15.16879374	25.37359726	24.84308151
H	16.46358101	26.43941806	24.29887289
H	16.88116905	24.99100652	25.06381778
C	19.85013148	25.05969312	12.76263266
C	19.15863418	23.18582411	14.18143513
C	17.54455223	24.87608096	13.52689568
C	14.55957534	24.42262741	21.04639802
C	16.12732459	22.67339174	21.67801392
C	15.95895555	24.71222319	23.02728209
C	10.78188641	17.10259743	18.47627403
C	9.34085929	19.05277281	18.53186737
C	8.48758434	16.89441232	19.23425566
H	13.46683029	16.72265788	13.24617119
H	13.78372493	19.94042456	10.52938863
C	13.78651816	18.37073077	12.04002602
C	13.54059660	16.99897102	12.19211060
C	13.91449071	18.89614704	10.73657906

Ti O H C N 0
6-31G*
****

