%chk=f00015267.chk
%mem=24GB
%nproc=12
#p b3lyp/6-31G*

title

0 1
Ti	2.81187400	0.19704000	1.10336000
Ti	0.90594400	5.44057000	1.10336000
Ti	4.71781400	5.44057000	1.10336000
Ti	0.90594400	2.47241000	1.99114000
Ti	4.71781400	2.47241000	1.99114000
Ti	2.81187400	7.71594000	1.99115000
O	2.81187400	8.81302000	0.37332000
O	0.90594400	3.56949000	0.37332000
O	4.71781400	3.56949000	0.37332000
O	0.90594400	0.60134000	1.26110000
O	4.71781400	0.60134000	1.26110000
O	2.81187400	5.84486000	1.26111000
O	2.81187400	2.06812000	1.83340000
O	0.90594400	7.31164000	1.83340000
O	4.71781400	7.31164000	1.83340000
O	0.90594400	4.34349000	2.72118000
O	4.71781400	4.34349000	2.72118000
O	2.81187400	9.58701000	2.72118000
Ti	6.62374588	0.19704000	1.10336000
Ti	21.87123776	0.19704000	1.10336000
Ti	8.52968588	5.44057000	1.10336000
Ti	23.77717776	5.44057000	1.10336000
Ti	8.52968588	2.47241000	1.99114000
Ti	23.77717776	2.47241000	1.99114000
Ti	6.62374588	7.71594000	1.99115000
Ti	21.87123776	7.71594000	1.99115000
Ti	10.43561588	0.19704000	1.10336000
Ti	25.68310776	0.19704000	1.10336000
Ti	14.24749588	0.19704000	1.10336000
Ti	29.49498776	0.19704000	1.10336000
Ti	18.05936588	0.19704000	1.10336000
Ti	12.34155588	5.44057000	1.10336000
Ti	27.58904776	5.44057000	1.10336000
Ti	16.15343588	5.44057000	1.10336000
Ti	19.96530588	5.44057000	1.10336000
Ti	12.34155588	2.47241000	1.99114000
Ti	27.58904776	2.47241000	1.99114000
Ti	16.15343588	2.47241000	1.99114000
Ti	19.96530588	2.47241000	1.99114000
Ti	10.43561588	7.71594000	1.99115000
Ti	25.68310776	7.71594000	1.99115000
Ti	14.24749588	7.71594000	1.99115000
Ti	29.49498776	7.71594000	1.99115000
Ti	18.05936588	7.71594000	1.99115000
O	6.62374588	8.81302000	0.37332000
O	21.87123776	8.81302000	0.37332000
O	8.52968588	3.56949000	0.37332000
O	23.77717776	3.56949000	0.37332000
O	8.52968588	0.60134000	1.26110000
O	23.77717776	0.60134000	1.26110000
O	6.62374588	5.84486000	1.26111000
O	21.87123776	5.84486000	1.26111000
O	6.62374588	2.06812000	1.83340000
O	21.87123776	2.06812000	1.83340000
O	8.52968588	7.31164000	1.83340000
O	23.77717776	7.31164000	1.83340000
O	8.52968588	4.34349000	2.72118000
O	23.77717776	4.34349000	2.72118000
O	6.62374588	9.58701000	2.72118000
O	21.87123776	9.58701000	2.72118000
O	10.43561588	8.81302000	0.37332000
O	25.68310776	8.81302000	0.37332000
O	14.24749588	8.81302000	0.37332000
O	29.49498776	8.81302000	0.37332000
O	18.05936588	8.81302000	0.37332000
O	12.34155588	3.56949000	0.37332000
O	27.58904776	3.56949000	0.37332000
O	16.15343588	3.56949000	0.37332000
O	19.96530588	3.56949000	0.37332000
O	12.34155588	0.60134000	1.26110000
O	27.58904776	0.60134000	1.26110000
O	16.15343588	0.60134000	1.26110000
O	19.96530588	0.60134000	1.26110000
O	10.43561588	5.84486000	1.26111000
O	25.68310776	5.84486000	1.26111000
O	14.24749588	5.84486000	1.26111000
O	29.49498776	5.84486000	1.26111000
O	18.05936588	5.84486000	1.26111000
O	10.43561588	2.06812000	1.83340000
O	25.68310776	2.06812000	1.83340000
O	14.24749588	2.06812000	1.83340000
O	29.49498776	2.06812000	1.83340000
O	18.05936588	2.06812000	1.83340000
O	12.34155588	7.31164000	1.83340000
O	27.58904776	7.31164000	1.83340000
O	16.15343588	7.31164000	1.83340000
O	19.96530588	7.31164000	1.83340000
O	12.34155588	4.34349000	2.72118000
O	27.58904776	4.34349000	2.72118000
O	16.15343588	4.34349000	2.72118000
O	19.96530588	4.34349000	2.72118000
O	10.43561588	9.58701000	2.72118000
O	25.68310776	9.58701000	2.72118000
O	14.24749588	9.58701000	2.72118000
O	29.49498776	9.58701000	2.72118000
O	18.05936588	9.58701000	2.72118000
Ti	2.81187400	10.68408607	1.10336000
Ti	2.81187400	21.17113214	1.10336000
Ti	0.90594400	15.92761607	1.10336000
Ti	0.90594400	26.41466214	1.10336000
Ti	4.71781400	15.92761607	1.10336000
Ti	4.71781400	26.41466214	1.10336000
Ti	0.90594400	12.95945607	1.99114000
Ti	0.90594400	23.44650214	1.99114000
Ti	4.71781400	12.95945607	1.99114000
Ti	4.71781400	23.44650214	1.99114000
Ti	2.81187400	18.20298607	1.99115000
Ti	2.81187400	28.69003214	1.99115000
O	2.81187400	19.30006607	0.37332000
O	2.81187400	29.78711214	0.37332000
O	0.90594400	14.05653607	0.37332000
O	0.90594400	24.54358214	0.37332000
O	4.71781400	14.05653607	0.37332000
O	4.71781400	24.54358214	0.37332000
O	0.90594400	11.08838607	1.26110000
O	0.90594400	21.57543214	1.26110000
O	4.71781400	11.08838607	1.26110000
O	4.71781400	21.57543214	1.26110000
O	2.81187400	16.33190607	1.26111000
O	2.81187400	26.81895214	1.26111000
O	2.81187400	12.55516607	1.83340000
O	2.81187400	23.04221214	1.83340000
O	0.90594400	17.79868607	1.83340000
O	0.90594400	28.28573214	1.83340000
O	4.71781400	17.79868607	1.83340000
O	4.71781400	28.28573214	1.83340000
O	0.90594400	14.83053607	2.72118000
O	0.90594400	25.31758214	2.72118000
O	4.71781400	14.83053607	2.72118000
O	4.71781400	25.31758214	2.72118000
O	2.81187400	20.07405607	2.72118000
O	2.81187400	30.56110214	2.72118000
Ti	6.62374588	10.68408607	1.10336000
Ti	6.62374588	21.17113214	1.10336000
Ti	21.87123776	10.68408607	1.10336000
Ti	21.87123776	21.17113214	1.10336000
Ti	8.52968588	15.92761607	1.10336000
Ti	8.52968588	26.41466214	1.10336000
Ti	23.77717776	15.92761607	1.10336000
Ti	23.77717776	26.41466214	1.10336000
Ti	8.52968588	12.95945607	1.99114000
Ti	8.52968588	23.44650214	1.99114000
Ti	23.77717776	12.95945607	1.99114000
Ti	23.77717776	23.44650214	1.99114000
Ti	6.62374588	18.20298607	1.99115000
Ti	6.62374588	28.69003214	1.99115000
Ti	21.87123776	18.20298607	1.99115000
Ti	21.87123776	28.69003214	1.99115000
Ti	10.43561588	10.68408607	1.10336000
Ti	10.43561588	21.17113214	1.10336000
Ti	25.68310776	10.68408607	1.10336000
Ti	25.68310776	21.17113214	1.10336000
Ti	14.24749588	10.68408607	1.10336000
Ti	14.24749588	21.17113214	1.10336000
Ti	29.49498776	10.68408607	1.10336000
Ti	29.49498776	21.17113214	1.10336000
Ti	18.05936588	10.68408607	1.10336000
Ti	18.05936588	21.17113214	1.10336000
Ti	12.34155588	15.92761607	1.10336000
Ti	12.34155588	26.41466214	1.10336000
Ti	27.58904776	15.92761607	1.10336000
Ti	27.58904776	26.41466214	1.10336000
Ti	16.15343588	15.92761607	1.10336000
Ti	16.15343588	26.41466214	1.10336000
Ti	19.96530588	15.92761607	1.10336000
Ti	19.96530588	26.41466214	1.10336000
Ti	12.34155588	12.95945607	1.99114000
Ti	12.34155588	23.44650214	1.99114000
Ti	27.58904776	12.95945607	1.99114000
Ti	27.58904776	23.44650214	1.99114000
Ti	16.15343588	12.95945607	1.99114000
Ti	16.15343588	23.44650214	1.99114000
Ti	19.96530588	12.95945607	1.99114000
Ti	19.96530588	23.44650214	1.99114000
Ti	10.43561588	18.20298607	1.99115000
Ti	10.43561588	28.69003214	1.99115000
Ti	25.68310776	18.20298607	1.99115000
Ti	25.68310776	28.69003214	1.99115000
Ti	14.24749588	18.20298607	1.99115000
Ti	14.24749588	28.69003214	1.99115000
Ti	29.49498776	18.20298607	1.99115000
Ti	29.49498776	28.69003214	1.99115000
Ti	18.05936588	18.20298607	1.99115000
Ti	18.05936588	28.69003214	1.99115000
O	6.62374588	19.30006607	0.37332000
O	6.62374588	29.78711214	0.37332000
O	21.87123776	19.30006607	0.37332000
O	21.87123776	29.78711214	0.37332000
O	8.52968588	14.05653607	0.37332000
O	8.52968588	24.54358214	0.37332000
O	23.77717776	14.05653607	0.37332000
O	23.77717776	24.54358214	0.37332000
O	8.52968588	11.08838607	1.26110000
O	8.52968588	21.57543214	1.26110000
O	23.77717776	11.08838607	1.26110000
O	23.77717776	21.57543214	1.26110000
O	6.62374588	16.33190607	1.26111000
O	6.62374588	26.81895214	1.26111000
O	21.87123776	16.33190607	1.26111000
O	21.87123776	26.81895214	1.26111000
O	6.62374588	12.55516607	1.83340000
O	6.62374588	23.04221214	1.83340000
O	21.87123776	12.55516607	1.83340000
O	21.87123776	23.04221214	1.83340000
O	8.52968588	17.79868607	1.83340000
O	8.52968588	28.28573214	1.83340000
O	23.77717776	17.79868607	1.83340000
O	23.77717776	28.28573214	1.83340000
O	8.52968588	14.83053607	2.72118000
O	8.52968588	25.31758214	2.72118000
O	23.77717776	14.83053607	2.72118000
O	23.77717776	25.31758214	2.72118000
O	6.62374588	20.07405607	2.72118000
O	6.62374588	30.56110214	2.72118000
O	21.87123776	20.07405607	2.72118000
O	21.87123776	30.56110214	2.72118000
O	10.43561588	19.30006607	0.37332000
O	10.43561588	29.78711214	0.37332000
O	25.68310776	19.30006607	0.37332000
O	25.68310776	29.78711214	0.37332000
O	14.24749588	19.30006607	0.37332000
O	14.24749588	29.78711214	0.37332000
O	29.49498776	19.30006607	0.37332000
O	29.49498776	29.78711214	0.37332000
O	18.05936588	19.30006607	0.37332000
O	18.05936588	29.78711214	0.37332000
O	12.34155588	14.05653607	0.37332000
O	12.34155588	24.54358214	0.37332000
O	27.58904776	14.05653607	0.37332000
O	27.58904776	24.54358214	0.37332000
O	16.15343588	14.05653607	0.37332000
O	16.15343588	24.54358214	0.37332000
O	19.96530588	14.05653607	0.37332000
O	19.96530588	24.54358214	0.37332000
O	12.34155588	11.08838607	1.26110000
O	12.34155588	21.57543214	1.26110000
O	27.58904776	11.08838607	1.26110000
O	27.58904776	21.57543214	1.26110000
O	16.15343588	11.08838607	1.26110000
O	16.15343588	21.57543214	1.26110000
O	19.96530588	11.08838607	1.26110000
O	19.96530588	21.57543214	1.26110000
O	10.43561588	16.33190607	1.26111000
O	10.43561588	26.81895214	1.26111000
O	25.68310776	16.33190607	1.26111000
O	25.68310776	26.81895214	1.26111000
O	14.24749588	16.33190607	1.26111000
O	14.24749588	26.81895214	1.26111000
O	29.49498776	16.33190607	1.26111000
O	29.49498776	26.81895214	1.26111000
O	18.05936588	16.33190607	1.26111000
O	18.05936588	26.81895214	1.26111000
O	10.43561588	12.55516607	1.83340000
O	10.43561588	23.04221214	1.83340000
O	25.68310776	12.55516607	1.83340000
O	25.68310776	23.04221214	1.83340000
O	14.24749588	12.55516607	1.83340000
O	14.24749588	23.04221214	1.83340000
O	29.49498776	12.55516607	1.83340000
O	29.49498776	23.04221214	1.83340000
O	18.05936588	12.55516607	1.83340000
O	18.05936588	23.04221214	1.83340000
O	12.34155588	17.79868607	1.83340000
O	12.34155588	28.28573214	1.83340000
O	27.58904776	17.79868607	1.83340000
O	27.58904776	28.28573214	1.83340000
O	16.15343588	17.79868607	1.83340000
O	16.15343588	28.28573214	1.83340000
O	19.96530588	17.79868607	1.83340000
O	19.96530588	28.28573214	1.83340000
O	12.34155588	14.83053607	2.72118000
O	12.34155588	25.31758214	2.72118000
O	27.58904776	14.83053607	2.72118000
O	27.58904776	25.31758214	2.72118000
O	16.15343588	14.83053607	2.72118000
O	16.15343588	25.31758214	2.72118000
O	19.96530588	14.83053607	2.72118000
O	19.96530588	25.31758214	2.72118000
O	10.43561588	20.07405607	2.72118000
O	10.43561588	30.56110214	2.72118000
O	25.68310776	20.07405607	2.72118000
O	25.68310776	30.56110214	2.72118000
O	14.24749588	20.07405607	2.72118000
O	14.24749588	30.56110214	2.72118000
O	29.49498776	20.07405607	2.72118000
O	29.49498776	30.56110214	2.72118000
O	18.05936588	20.07405607	2.72118000
O	18.05936588	30.56110214	2.72118000
Ti	6.67282983	9.15817996	4.86205568
Ti	6.61996603	6.27782041	5.34700554
Ti	2.82225685	9.16848081	4.87687310
Ti	0.89138853	3.95377971	4.76531233
Ti	4.67390700	3.94573582	4.80541797
Ti	1.09054786	1.06270023	5.53397500
Ti	4.80047288	0.99828942	5.45971931
Ti	2.76176449	6.24820606	5.48253015
O	6.66309293	7.36875616	3.88128408
O	6.59268071	4.40040840	4.84966975
O	6.69595342	0.44701872	5.88819130
O	6.66493339	7.96261862	6.48709394
O	2.81370834	7.35464452	3.95893772
O	1.08016659	2.13904823	3.97705859
O	4.70426361	2.16686180	3.90168710
O	0.85130830	9.57263898	4.70189163
O	4.72985027	9.60205052	4.66925202
O	2.82728940	4.42826926	4.85429526
O	3.01976722	0.45061492	5.99265516
O	0.89772260	5.94879827	5.70457760
O	4.73215949	5.83096046	5.80670176
O	0.94024525	2.87348744	6.31413558
O	4.68399978	2.80775943	6.40635050
O	2.68644972	7.96035892	6.40422128
Ti	21.86798459	9.18939237	4.69164892
Ti	8.48255080	3.93395509	4.77323121
Ti	23.68040292	3.95789220	4.75659863
Ti	8.56381668	0.98991845	5.47132454
Ti	23.75676598	1.01593985	5.46349903
Ti	21.91169259	6.27675266	5.47193324
Ti	10.38190399	9.16963196	4.85167069
Ti	25.76140274	9.30756965	4.69086388
Ti	14.29560188	9.32031683	4.80202733
Ti	29.48694038	9.20907013	4.79306369
Ti	18.14021244	9.27700259	4.68896592
Ti	12.42209670	3.93187323	4.76679079
Ti	27.51459147	3.95198797	4.72459518
Ti	16.15301237	4.02372598	4.70422096
Ti	19.93557058	3.96195904	4.77488116
Ti	12.48612655	1.01153689	5.46840409
Ti	27.62394968	1.06159291	5.50183615
Ti	16.32602656	0.99951355	5.40819802
Ti	20.10541194	1.11649162	5.53095474
Ti	10.38236090	6.26177509	5.43993615
Ti	25.73813246	6.28688423	5.45982966
Ti	14.28616422	6.36016150	5.50995791
Ti	29.42078145	6.30015870	5.57181619
Ti	18.08859216	6.42473402	5.53897684
O	21.61489522	7.35576543	3.88766216
O	8.58707562	2.07476213	3.90074216
O	23.55976078	2.09428541	3.90514599
O	8.52556012	9.65542636	4.80918336
O	23.88305343	9.69390121	4.70711184
O	21.80406112	4.39696611	4.80713133
O	21.95382678	0.58911893	5.74328529
O	8.45467634	5.76641351	5.64615289
O	23.81797113	5.69960550	5.69419569
O	8.51833235	2.83140869	6.31589323
O	23.92982122	2.79668689	6.37372004
O	22.04600449	8.11680823	6.29791493
O	10.46287997	7.41596232	3.98158764
O	25.65925680	7.44373249	3.95084980
O	14.01875002	7.52021033	3.90927562
O	29.50402987	7.38037524	3.98374415
O	18.13669836	7.41442023	3.92629570
O	12.56708693	2.10315321	3.93719977
O	27.49591671	2.13352803	3.90696673
O	16.25353926	2.13883073	3.89678089
O	19.99297922	2.16193988	3.92930388
O	12.28574248	9.70539098	4.74600675
O	27.65718616	9.79743837	4.74902604
O	16.18668697	9.79144681	4.79350847
O	19.96944442	9.71123902	4.88665120
O	10.46799425	4.35278849	4.89351469
O	25.65807712	4.44429047	4.77731529
O	14.22501870	4.45416228	4.87206880
O	29.42741898	4.42355703	4.78028479
O	18.09264352	4.50174131	5.01812438
O	10.50291849	0.67671850	5.58576214
O	25.67834936	0.61890155	5.68176811
O	14.35633526	0.55484489	5.51315305
O	29.55911960	0.64625800	5.82595469
O	18.18007161	0.71764203	5.73319974
O	12.38408236	5.94606107	5.75192711
O	27.54469292	5.84062665	5.72837826
O	16.11950798	5.86785809	5.49013305
O	19.95743739	5.88194458	5.84673954
O	12.38502863	2.71795638	6.34390279
O	27.61310423	2.88896389	6.27008527
O	16.12717260	2.79554087	6.21717369
O	19.89591515	2.91263481	6.35198328
O	10.61099705	7.91152035	6.33558461
O	25.89461848	8.05991379	6.43106052
O	14.45480249	8.09300115	6.27171908
O	29.74985481	8.11290397	6.33713021
O	17.94504237	8.19787171	6.39281593
Ti	6.62376633	19.76503916	4.78552078
Ti	6.68616551	30.12713551	4.81008947
Ti	6.59126436	16.79884583	5.50197046
Ti	6.61061911	27.26342721	5.59185706
Ti	2.76606179	19.73596609	4.75315310
Ti	2.84910462	30.13981378	4.65128219
Ti	0.89533490	14.21718395	4.68045024
Ti	0.92594649	24.97434955	4.76499524
Ti	4.59442341	14.40025487	4.76226382
Ti	4.82015470	24.94197491	4.85732051
Ti	0.86288523	11.41786659	5.53920755
Ti	0.81349957	22.08843485	5.43754587
Ti	4.69100312	11.39518413	5.57966933
Ti	4.61971385	22.02439962	5.52735038
Ti	2.74361189	16.80339613	5.53359854
Ti	2.82312963	27.25717103	5.48127020
O	6.64867373	17.87553205	3.89840632
O	6.52157667	28.21451312	4.02324185
O	6.52662484	14.92632567	4.75448306
O	6.68127135	25.45053273	4.86826460
O	6.53378528	11.02245564	5.88011710
O	6.56240228	21.46071824	5.76121473
O	6.61920695	18.44532136	6.31203000
O	6.50614749	28.96181909	6.41310603
O	2.67963195	17.86210642	3.98710774
O	2.75015361	28.21522311	3.87979598
O	1.16781473	12.41019854	3.88427986
O	0.85814718	23.19414348	3.88972752
O	4.75260795	12.53289921	3.96435269
O	4.59912116	23.11198994	3.95152961
O	0.91913628	20.02964245	4.84285261
O	0.98209452	30.61479620	4.90274238
O	4.69308351	20.18230549	4.73691240
O	4.81837015	30.67259373	4.58587221
O	2.68244841	14.72366258	5.05588888
O	2.84458104	25.37097691	4.75552573
O	2.80156448	11.01227804	5.80749793
O	2.71304360	21.50086554	5.85136073
O	0.83340004	16.70078592	6.14424505
O	0.88762302	26.76638821	5.83165015
O	4.62717919	16.33025329	5.82902644
O	4.72445115	26.80359225	5.82666373
O	0.83710879	13.17132425	6.29750009
O	0.91844857	23.80833687	6.29878815
O	4.59296203	13.23302016	6.35534601
O	4.77022984	23.75079008	6.41772828
O	2.81325805	18.59080926	6.39866032
O	2.79449191	29.06064762	6.30068691
Ti	21.75363002	19.64830575	4.84610195
Ti	21.88750108	30.19426163	4.68669227
Ti	8.40683133	14.40895555	4.77275274
Ti	8.60960928	25.00251041	4.77277057
Ti	23.79784369	14.50069554	4.71434220
Ti	23.81828675	24.96982564	4.78092797
Ti	8.44272169	11.52360696	5.48047405
Ti	8.48653071	21.98731254	5.43532985
Ti	23.82837073	11.60329826	5.45023400
Ti	23.70540769	22.07384206	5.61077224
Ti	21.87747062	16.69094857	5.47949795
Ti	21.93897664	27.28696644	5.51090175
Ti	10.39313814	19.67174482	4.71686558
Ti	10.57503668	30.27011634	4.67726920
Ti	25.59720017	19.73851081	4.79999173
Ti	25.80377716	30.29516438	4.70092512
Ti	14.18079259	19.68663338	4.82525427
Ti	14.41405549	30.15906358	4.73011700
Ti	29.46631375	19.73799525	4.81054561
Ti	29.58218024	30.20643608	4.99362287
Ti	17.94094307	19.82166925	4.85657441
Ti	18.16868304	30.10317845	4.73703717
Ti	12.26628119	14.51087710	4.78477672
Ti	12.35213218	24.93275093	4.70086204
Ti	27.72858731	14.54466912	4.82650890
Ti	27.59929535	24.91111398	4.84365105
Ti	16.15639295	14.57711436	4.84929316
Ti	16.15456455	24.94593464	4.68174985
Ti	20.04727536	14.46676160	4.82402054
Ti	20.03887149	24.96373602	4.73538222
Ti	12.36690013	11.52791002	5.50198223
Ti	12.29415004	22.05913395	5.55024149
Ti	27.58860606	11.63846763	5.55144264
Ti	27.53928288	21.93716817	5.50848628
Ti	16.24104001	11.63623790	5.53451188
Ti	16.02301939	22.09692136	5.56389617
Ti	20.03762645	11.58846252	5.48850904
Ti	19.90721894	22.03853167	5.46566619
Ti	10.33570840	16.70171896	5.40333052
Ti	10.47483512	27.27609238	5.45437754
Ti	25.76620077	16.84314373	5.48056715
Ti	25.56279386	27.46842085	5.57605409
Ti	14.13286400	16.77114947	5.79728697
Ti	14.29637189	27.26204026	5.53407203
Ti	29.54452824	16.84067340	5.57943928
Ti	29.44758066	27.27662903	5.55230535
Ti	18.09880418	16.85749303	5.49014683
Ti	18.10515774	27.28431749	5.54595441
O	21.77336172	17.85108661	3.95574551
O	21.57707111	28.33662056	3.95452568
O	8.51074592	12.57953998	3.91087078
O	8.39489865	23.16542869	3.86441798
O	23.68756707	12.65774959	3.90127227
O	23.66967608	23.05522670	4.04019303
O	8.55796137	20.18402235	4.75399824
O	8.60160789	30.54255597	4.76848535
O	23.66015267	20.14445800	4.80735146
O	23.84287099	30.65016527	4.62720484
O	21.85648531	14.92494697	4.59333784
O	21.89087416	25.39932767	4.83463878
O	21.93475303	10.95694513	5.73335395
O	21.77339513	21.56836908	5.83101496
O	8.46528284	16.15086724	5.85260913
O	8.54846006	26.82933440	5.80377408
O	23.71916569	16.29297855	5.68457248
O	23.81134956	26.72834665	5.70281313
O	8.52945468	13.27459211	6.29852779
O	8.59389472	23.75050536	6.44347619
O	23.93855941	13.34715331	6.36504147
O	23.70135715	23.90339916	6.36750254
O	21.79759174	18.52738839	6.43785010
O	21.95307043	29.03589353	6.27519246
O	10.22189969	17.87455898	3.95175713
O	10.47673119	28.40926947	3.90504388
O	25.58993793	17.84404682	3.98768991
O	25.85296869	28.35597661	3.96991914
O	14.14580993	17.88515880	3.97174184
O	14.07625950	28.27623084	3.96349771
O	29.55336143	17.77969024	3.95040933
O	29.44820064	28.37798281	4.01453051
O	17.99342819	17.94957460	4.01048200
O	18.13969925	28.31465782	3.92189918
O	12.40074743	12.65868943	3.95229696
O	12.38602778	23.05684660	4.01827503
O	27.70986947	12.63450902	3.88848827
O	27.74156052	23.14949354	4.04813385
O	16.15329579	12.68230883	3.97766237
O	16.46108240	23.10687169	3.97186866
O	19.98137189	12.55730383	3.90000667
O	20.14342057	23.09767308	3.92623908
O	12.33657301	20.11196673	5.01634616
O	12.45824190	30.64578966	4.93643376
O	27.51332903	20.05697681	4.70167058
O	27.73299940	30.64134766	4.73586310
O	16.08828181	20.24162717	4.79971095
O	16.27353028	30.53173916	4.74528464
O	19.91929057	19.95453240	4.75387981
O	19.96228553	30.73372197	4.74814073
O	10.34618083	14.88023866	4.66120212
O	10.49452825	25.49515884	4.59754955
O	25.76683119	14.89258973	4.86915768
O	25.76641157	25.52236241	4.77380652
O	14.28364445	14.95479371	4.81700319
O	14.25215459	25.41365714	4.65174545
O	29.60633872	14.93508366	4.99427806
O	29.48036908	25.42276709	4.84075094
O	18.13826641	14.88942967	4.88805889
O	18.10171656	25.43065838	4.73494723
O	10.39835772	11.14293467	5.86451495
O	10.37314678	21.49771993	5.95340477
O	25.64326730	11.20710051	5.70902761
O	25.59443368	21.48892533	5.64890619
O	14.30986763	11.14810077	5.94132144
O	14.16695813	21.56731028	5.68194103
O	29.54029354	10.99851531	5.90239987
O	29.50201952	21.58416130	5.58508697
O	18.18036278	11.04368465	5.64579740
O	17.95360609	21.59874231	5.71433510
O	12.17990101	16.39752310	5.60416319
O	12.36865447	26.77502313	5.82274010
O	27.60590212	16.37268026	5.71404795
O	27.59639566	26.83418415	5.86017856
O	16.14037901	16.36611719	5.79067580
O	16.25658170	26.58272907	5.90225541
O	20.02331690	16.21325955	6.09144811
O	20.01635429	26.96592875	5.88960179
O	12.09887750	13.40304235	6.43231334
O	12.37936396	23.85071790	6.39756058
O	27.73315563	13.39526528	6.40156428
O	27.40559391	23.70111212	6.41645292
O	16.10035277	13.36147138	6.41268731
O	15.86473562	23.86119027	6.29461546
O	19.93718108	13.37092104	6.37317812
O	19.89472472	23.76598661	6.33906038
O	10.23982411	18.52504353	6.37752201
O	10.43006050	29.13233238	6.34701537
O	25.73953296	18.41686471	6.36197620
O	25.54553666	29.24442328	6.39226545
O	14.43184341	18.66437627	6.44521121
O	14.52846874	29.01321645	6.33164077
O	29.31946541	18.66673838	6.36931766
O	29.43180086	29.00265559	6.45539765
O	18.14366402	18.62564559	6.49105062
O	17.97815663	28.99861138	6.37312310
H	13.89315241	13.87902648	7.95304307
H	14.56060864	14.75665936	11.10619409
H	13.89886495	18.28643104	8.92393136
O	13.98239177	15.94319830	7.46994798
O	14.13959710	14.28670753	8.83179199
C	14.08323920	15.56644670	8.68507995
C	14.08747555	16.39869646	9.88245022
C	14.30957083	15.81419806	11.12008200
C	14.07997491	17.81283047	9.85648303
N	13.25180037	19.25773401	15.70568814
N	15.24527033	22.53880519	16.77002474
N	15.45240460	20.71286998	14.47405475
N	13.00106932	21.26418254	17.95399408
C	20.41454349	24.03919036	14.22951253
C	15.54808897	23.81958182	22.52151772
C	7.85592492	18.37462230	18.24508484
C	18.05155284	23.40058168	14.23601863
C	14.64516466	23.69010963	20.34939613
C	10.23228593	18.70305247	17.98796393
C	18.82341592	25.28634792	12.87991521
C	14.10691699	25.59593981	21.79774619
C	9.37248014	16.95212194	19.43442679
C	14.39266324	18.70730178	13.51885029
C	16.91015149	22.67188775	14.86493342
C	14.39203205	22.92283410	19.08415505
C	11.37621038	19.43702488	17.39580690
C	15.43024503	19.66525088	13.55784654
C	16.52315686	21.50532872	14.15933313
C	13.34351485	21.96370852	19.08513525
C	12.00928305	20.38414957	18.25431193
C	16.42485347	19.86748053	12.56407899
C	17.13933777	20.95909529	12.94611668
C	12.48515314	21.52925769	20.19058430
C	11.61623972	20.63496851	19.65025833
C	13.45468883	18.46150581	14.54458183
C	16.31487685	23.11324444	16.05129540
C	15.16803426	23.26285702	17.98560817
C	12.02218138	18.90299825	16.23709748
C	12.39411044	17.52427248	14.44338464
C	16.71130408	24.33670758	16.78843518
C	16.07590182	24.33272511	17.95368895
C	11.48954785	17.85448006	15.44959668
H	12.22869339	16.71048676	13.71751933
H	17.49088312	24.99626372	16.37630736
H	16.20173039	25.10741478	18.74511486
H	10.54091646	17.37191308	15.65858027
H	16.72753524	19.12265748	11.79678170
H	18.01631054	21.32530872	12.46400167
H	12.54984294	21.76628054	21.26861069
H	10.74821278	20.21224220	20.20303296
H	18.56067463	26.11558303	12.15595097
H	13.59998040	26.53660571	21.92005785
H	9.50346769	16.12593542	20.05741590
H	21.45922039	23.81145885	14.49200149
H	16.24004806	23.43838477	23.38512239
H	6.80011237	18.68011818	17.85710806
H	14.75150616	20.89238684	15.20467701
H	13.45545998	21.33622314	17.02145883
C	21.23055773	26.12434507	13.08926138
H	21.97796553	26.19536596	13.84553028
H	20.81346196	27.05350010	12.71864872
H	21.90082661	25.82451834	12.20998255
C	19.68131557	22.29892317	15.84087165
H	19.00251984	21.42858765	15.85041310
H	19.50317016	22.84852836	16.77804144
H	20.72912095	22.01208646	15.85875875
C	16.40730480	24.59089416	12.78368742
H	15.63427621	24.26634387	13.49450887
H	16.28853594	23.99959046	11.89644154
H	16.24979155	25.60147155	12.49405389
C	11.91480135	17.28766487	19.03830388
H	11.97278208	16.23559940	19.42292041
H	12.38799657	17.95313322	19.80236430
H	12.37126155	17.50205171	18.05589142
C	8.62929120	20.15432429	16.68853276
H	9.54520966	20.74588823	16.69166211
H	7.84563262	20.86769521	17.04532828
H	8.33733276	19.76692719	15.75419370
C	6.78606609	16.56434136	19.55540018
H	5.87785955	17.16040187	19.62057404
H	6.97116450	16.16269233	20.57554693
H	6.56048409	15.75279963	18.84073377
C	13.09313365	25.39754600	19.45012346
H	13.21863264	24.74196005	18.58276851
H	13.31144666	26.40396039	19.19000500
H	12.10254667	25.38052305	19.78036908
C	16.50025778	22.04630522	21.14663580
H	16.14694652	21.30919503	20.33661216
H	16.63794277	21.61977044	22.16664718
H	17.44477867	22.34249720	20.69589582
C	15.20297177	25.80329178	24.05158964
H	14.86299776	26.89258719	23.93977526
H	16.22220049	25.75191385	24.33490500
H	14.61418824	25.27250940	24.83472711
C	20.10859965	25.15157188	13.42526044
C	19.37716252	23.17257672	14.65188532
C	17.83278198	24.38157190	13.27666809
C	13.93983257	24.85973331	20.56449814
C	15.56303371	23.14197994	21.31546268
C	14.91830825	25.04150262	22.77183447
C	10.46530834	17.62818838	18.88239719
C	8.92421114	19.05946197	17.68558389
C	8.03431964	17.29341415	19.11143902
H	14.69851972	16.05849770	13.29413507
H	14.25516970	19.61949590	11.13777846
C	14.34740557	17.91461323	12.30628630
C	14.46535276	16.49446533	12.31204604
C	14.16272979	18.51011546	11.06180269

Ti O H C N 0
6-31G*
****

