%chk=f00019849.chk
%mem=24GB
%nproc=12
#p b3lyp/6-31G*

title

0 1
Ti	2.81187400	0.19704000	1.10336000
Ti	0.90594400	5.44057000	1.10336000
Ti	4.71781400	5.44057000	1.10336000
Ti	0.90594400	2.47241000	1.99114000
Ti	4.71781400	2.47241000	1.99114000
Ti	2.81187400	7.71594000	1.99115000
O	2.81187400	8.81302000	0.37332000
O	0.90594400	3.56949000	0.37332000
O	4.71781400	3.56949000	0.37332000
O	0.90594400	0.60134000	1.26110000
O	4.71781400	0.60134000	1.26110000
O	2.81187400	5.84486000	1.26111000
O	2.81187400	2.06812000	1.83340000
O	0.90594400	7.31164000	1.83340000
O	4.71781400	7.31164000	1.83340000
O	0.90594400	4.34349000	2.72118000
O	4.71781400	4.34349000	2.72118000
O	2.81187400	9.58701000	2.72118000
Ti	6.62374588	0.19704000	1.10336000
Ti	21.87123776	0.19704000	1.10336000
Ti	8.52968588	5.44057000	1.10336000
Ti	23.77717776	5.44057000	1.10336000
Ti	8.52968588	2.47241000	1.99114000
Ti	23.77717776	2.47241000	1.99114000
Ti	6.62374588	7.71594000	1.99115000
Ti	21.87123776	7.71594000	1.99115000
Ti	10.43561588	0.19704000	1.10336000
Ti	25.68310776	0.19704000	1.10336000
Ti	14.24749588	0.19704000	1.10336000
Ti	29.49498776	0.19704000	1.10336000
Ti	18.05936588	0.19704000	1.10336000
Ti	12.34155588	5.44057000	1.10336000
Ti	27.58904776	5.44057000	1.10336000
Ti	16.15343588	5.44057000	1.10336000
Ti	19.96530588	5.44057000	1.10336000
Ti	12.34155588	2.47241000	1.99114000
Ti	27.58904776	2.47241000	1.99114000
Ti	16.15343588	2.47241000	1.99114000
Ti	19.96530588	2.47241000	1.99114000
Ti	10.43561588	7.71594000	1.99115000
Ti	25.68310776	7.71594000	1.99115000
Ti	14.24749588	7.71594000	1.99115000
Ti	29.49498776	7.71594000	1.99115000
Ti	18.05936588	7.71594000	1.99115000
O	6.62374588	8.81302000	0.37332000
O	21.87123776	8.81302000	0.37332000
O	8.52968588	3.56949000	0.37332000
O	23.77717776	3.56949000	0.37332000
O	8.52968588	0.60134000	1.26110000
O	23.77717776	0.60134000	1.26110000
O	6.62374588	5.84486000	1.26111000
O	21.87123776	5.84486000	1.26111000
O	6.62374588	2.06812000	1.83340000
O	21.87123776	2.06812000	1.83340000
O	8.52968588	7.31164000	1.83340000
O	23.77717776	7.31164000	1.83340000
O	8.52968588	4.34349000	2.72118000
O	23.77717776	4.34349000	2.72118000
O	6.62374588	9.58701000	2.72118000
O	21.87123776	9.58701000	2.72118000
O	10.43561588	8.81302000	0.37332000
O	25.68310776	8.81302000	0.37332000
O	14.24749588	8.81302000	0.37332000
O	29.49498776	8.81302000	0.37332000
O	18.05936588	8.81302000	0.37332000
O	12.34155588	3.56949000	0.37332000
O	27.58904776	3.56949000	0.37332000
O	16.15343588	3.56949000	0.37332000
O	19.96530588	3.56949000	0.37332000
O	12.34155588	0.60134000	1.26110000
O	27.58904776	0.60134000	1.26110000
O	16.15343588	0.60134000	1.26110000
O	19.96530588	0.60134000	1.26110000
O	10.43561588	5.84486000	1.26111000
O	25.68310776	5.84486000	1.26111000
O	14.24749588	5.84486000	1.26111000
O	29.49498776	5.84486000	1.26111000
O	18.05936588	5.84486000	1.26111000
O	10.43561588	2.06812000	1.83340000
O	25.68310776	2.06812000	1.83340000
O	14.24749588	2.06812000	1.83340000
O	29.49498776	2.06812000	1.83340000
O	18.05936588	2.06812000	1.83340000
O	12.34155588	7.31164000	1.83340000
O	27.58904776	7.31164000	1.83340000
O	16.15343588	7.31164000	1.83340000
O	19.96530588	7.31164000	1.83340000
O	12.34155588	4.34349000	2.72118000
O	27.58904776	4.34349000	2.72118000
O	16.15343588	4.34349000	2.72118000
O	19.96530588	4.34349000	2.72118000
O	10.43561588	9.58701000	2.72118000
O	25.68310776	9.58701000	2.72118000
O	14.24749588	9.58701000	2.72118000
O	29.49498776	9.58701000	2.72118000
O	18.05936588	9.58701000	2.72118000
Ti	2.81187400	10.68408607	1.10336000
Ti	2.81187400	21.17113214	1.10336000
Ti	0.90594400	15.92761607	1.10336000
Ti	0.90594400	26.41466214	1.10336000
Ti	4.71781400	15.92761607	1.10336000
Ti	4.71781400	26.41466214	1.10336000
Ti	0.90594400	12.95945607	1.99114000
Ti	0.90594400	23.44650214	1.99114000
Ti	4.71781400	12.95945607	1.99114000
Ti	4.71781400	23.44650214	1.99114000
Ti	2.81187400	18.20298607	1.99115000
Ti	2.81187400	28.69003214	1.99115000
O	2.81187400	19.30006607	0.37332000
O	2.81187400	29.78711214	0.37332000
O	0.90594400	14.05653607	0.37332000
O	0.90594400	24.54358214	0.37332000
O	4.71781400	14.05653607	0.37332000
O	4.71781400	24.54358214	0.37332000
O	0.90594400	11.08838607	1.26110000
O	0.90594400	21.57543214	1.26110000
O	4.71781400	11.08838607	1.26110000
O	4.71781400	21.57543214	1.26110000
O	2.81187400	16.33190607	1.26111000
O	2.81187400	26.81895214	1.26111000
O	2.81187400	12.55516607	1.83340000
O	2.81187400	23.04221214	1.83340000
O	0.90594400	17.79868607	1.83340000
O	0.90594400	28.28573214	1.83340000
O	4.71781400	17.79868607	1.83340000
O	4.71781400	28.28573214	1.83340000
O	0.90594400	14.83053607	2.72118000
O	0.90594400	25.31758214	2.72118000
O	4.71781400	14.83053607	2.72118000
O	4.71781400	25.31758214	2.72118000
O	2.81187400	20.07405607	2.72118000
O	2.81187400	30.56110214	2.72118000
Ti	6.62374588	10.68408607	1.10336000
Ti	6.62374588	21.17113214	1.10336000
Ti	21.87123776	10.68408607	1.10336000
Ti	21.87123776	21.17113214	1.10336000
Ti	8.52968588	15.92761607	1.10336000
Ti	8.52968588	26.41466214	1.10336000
Ti	23.77717776	15.92761607	1.10336000
Ti	23.77717776	26.41466214	1.10336000
Ti	8.52968588	12.95945607	1.99114000
Ti	8.52968588	23.44650214	1.99114000
Ti	23.77717776	12.95945607	1.99114000
Ti	23.77717776	23.44650214	1.99114000
Ti	6.62374588	18.20298607	1.99115000
Ti	6.62374588	28.69003214	1.99115000
Ti	21.87123776	18.20298607	1.99115000
Ti	21.87123776	28.69003214	1.99115000
Ti	10.43561588	10.68408607	1.10336000
Ti	10.43561588	21.17113214	1.10336000
Ti	25.68310776	10.68408607	1.10336000
Ti	25.68310776	21.17113214	1.10336000
Ti	14.24749588	10.68408607	1.10336000
Ti	14.24749588	21.17113214	1.10336000
Ti	29.49498776	10.68408607	1.10336000
Ti	29.49498776	21.17113214	1.10336000
Ti	18.05936588	10.68408607	1.10336000
Ti	18.05936588	21.17113214	1.10336000
Ti	12.34155588	15.92761607	1.10336000
Ti	12.34155588	26.41466214	1.10336000
Ti	27.58904776	15.92761607	1.10336000
Ti	27.58904776	26.41466214	1.10336000
Ti	16.15343588	15.92761607	1.10336000
Ti	16.15343588	26.41466214	1.10336000
Ti	19.96530588	15.92761607	1.10336000
Ti	19.96530588	26.41466214	1.10336000
Ti	12.34155588	12.95945607	1.99114000
Ti	12.34155588	23.44650214	1.99114000
Ti	27.58904776	12.95945607	1.99114000
Ti	27.58904776	23.44650214	1.99114000
Ti	16.15343588	12.95945607	1.99114000
Ti	16.15343588	23.44650214	1.99114000
Ti	19.96530588	12.95945607	1.99114000
Ti	19.96530588	23.44650214	1.99114000
Ti	10.43561588	18.20298607	1.99115000
Ti	10.43561588	28.69003214	1.99115000
Ti	25.68310776	18.20298607	1.99115000
Ti	25.68310776	28.69003214	1.99115000
Ti	14.24749588	18.20298607	1.99115000
Ti	14.24749588	28.69003214	1.99115000
Ti	29.49498776	18.20298607	1.99115000
Ti	29.49498776	28.69003214	1.99115000
Ti	18.05936588	18.20298607	1.99115000
Ti	18.05936588	28.69003214	1.99115000
O	6.62374588	19.30006607	0.37332000
O	6.62374588	29.78711214	0.37332000
O	21.87123776	19.30006607	0.37332000
O	21.87123776	29.78711214	0.37332000
O	8.52968588	14.05653607	0.37332000
O	8.52968588	24.54358214	0.37332000
O	23.77717776	14.05653607	0.37332000
O	23.77717776	24.54358214	0.37332000
O	8.52968588	11.08838607	1.26110000
O	8.52968588	21.57543214	1.26110000
O	23.77717776	11.08838607	1.26110000
O	23.77717776	21.57543214	1.26110000
O	6.62374588	16.33190607	1.26111000
O	6.62374588	26.81895214	1.26111000
O	21.87123776	16.33190607	1.26111000
O	21.87123776	26.81895214	1.26111000
O	6.62374588	12.55516607	1.83340000
O	6.62374588	23.04221214	1.83340000
O	21.87123776	12.55516607	1.83340000
O	21.87123776	23.04221214	1.83340000
O	8.52968588	17.79868607	1.83340000
O	8.52968588	28.28573214	1.83340000
O	23.77717776	17.79868607	1.83340000
O	23.77717776	28.28573214	1.83340000
O	8.52968588	14.83053607	2.72118000
O	8.52968588	25.31758214	2.72118000
O	23.77717776	14.83053607	2.72118000
O	23.77717776	25.31758214	2.72118000
O	6.62374588	20.07405607	2.72118000
O	6.62374588	30.56110214	2.72118000
O	21.87123776	20.07405607	2.72118000
O	21.87123776	30.56110214	2.72118000
O	10.43561588	19.30006607	0.37332000
O	10.43561588	29.78711214	0.37332000
O	25.68310776	19.30006607	0.37332000
O	25.68310776	29.78711214	0.37332000
O	14.24749588	19.30006607	0.37332000
O	14.24749588	29.78711214	0.37332000
O	29.49498776	19.30006607	0.37332000
O	29.49498776	29.78711214	0.37332000
O	18.05936588	19.30006607	0.37332000
O	18.05936588	29.78711214	0.37332000
O	12.34155588	14.05653607	0.37332000
O	12.34155588	24.54358214	0.37332000
O	27.58904776	14.05653607	0.37332000
O	27.58904776	24.54358214	0.37332000
O	16.15343588	14.05653607	0.37332000
O	16.15343588	24.54358214	0.37332000
O	19.96530588	14.05653607	0.37332000
O	19.96530588	24.54358214	0.37332000
O	12.34155588	11.08838607	1.26110000
O	12.34155588	21.57543214	1.26110000
O	27.58904776	11.08838607	1.26110000
O	27.58904776	21.57543214	1.26110000
O	16.15343588	11.08838607	1.26110000
O	16.15343588	21.57543214	1.26110000
O	19.96530588	11.08838607	1.26110000
O	19.96530588	21.57543214	1.26110000
O	10.43561588	16.33190607	1.26111000
O	10.43561588	26.81895214	1.26111000
O	25.68310776	16.33190607	1.26111000
O	25.68310776	26.81895214	1.26111000
O	14.24749588	16.33190607	1.26111000
O	14.24749588	26.81895214	1.26111000
O	29.49498776	16.33190607	1.26111000
O	29.49498776	26.81895214	1.26111000
O	18.05936588	16.33190607	1.26111000
O	18.05936588	26.81895214	1.26111000
O	10.43561588	12.55516607	1.83340000
O	10.43561588	23.04221214	1.83340000
O	25.68310776	12.55516607	1.83340000
O	25.68310776	23.04221214	1.83340000
O	14.24749588	12.55516607	1.83340000
O	14.24749588	23.04221214	1.83340000
O	29.49498776	12.55516607	1.83340000
O	29.49498776	23.04221214	1.83340000
O	18.05936588	12.55516607	1.83340000
O	18.05936588	23.04221214	1.83340000
O	12.34155588	17.79868607	1.83340000
O	12.34155588	28.28573214	1.83340000
O	27.58904776	17.79868607	1.83340000
O	27.58904776	28.28573214	1.83340000
O	16.15343588	17.79868607	1.83340000
O	16.15343588	28.28573214	1.83340000
O	19.96530588	17.79868607	1.83340000
O	19.96530588	28.28573214	1.83340000
O	12.34155588	14.83053607	2.72118000
O	12.34155588	25.31758214	2.72118000
O	27.58904776	14.83053607	2.72118000
O	27.58904776	25.31758214	2.72118000
O	16.15343588	14.83053607	2.72118000
O	16.15343588	25.31758214	2.72118000
O	19.96530588	14.83053607	2.72118000
O	19.96530588	25.31758214	2.72118000
O	10.43561588	20.07405607	2.72118000
O	10.43561588	30.56110214	2.72118000
O	25.68310776	20.07405607	2.72118000
O	25.68310776	30.56110214	2.72118000
O	14.24749588	20.07405607	2.72118000
O	14.24749588	30.56110214	2.72118000
O	29.49498776	20.07405607	2.72118000
O	29.49498776	30.56110214	2.72118000
O	18.05936588	20.07405607	2.72118000
O	18.05936588	30.56110214	2.72118000
Ti	6.64503259	9.20438960	4.65737893
Ti	6.69025348	6.30058414	5.47056084
Ti	2.85434980	9.18088267	4.67442985
Ti	0.86642508	3.86388400	4.74159283
Ti	4.70868145	4.05214067	4.72497145
Ti	0.98578627	0.99249012	5.44286179
Ti	4.73568104	1.10632164	5.40550162
Ti	2.75672246	6.26533152	5.43648579
O	6.57342964	7.34414529	3.85331115
O	6.71315460	4.35845113	4.66227239
O	6.61389684	0.67008212	5.82072951
O	6.74859046	7.95491942	6.19263285
O	2.74541951	7.27792226	3.83798149
O	0.93328138	2.11252379	3.90474093
O	4.71058752	2.05450795	3.84183992
O	0.94126510	9.59920995	4.80935615
O	4.80830953	9.59509990	4.88633598
O	2.82327187	4.28168330	4.80882335
O	2.88218682	0.69763702	5.55267700
O	0.80795862	5.76299220	5.60801487
O	4.73867939	5.74189513	5.61879744
O	1.03638162	2.87473604	6.34815221
O	4.71240321	2.81619262	6.23671070
O	2.77931307	7.91798634	6.35591993
Ti	21.81304762	9.31910395	4.68711396
Ti	8.57700456	3.89603225	4.80217022
Ti	23.70779204	3.94607424	4.78957105
Ti	8.49953434	0.92925299	5.57804355
Ti	23.74445233	0.98242938	5.47853845
Ti	21.72844652	6.35885556	5.49564840
Ti	10.39032108	9.22117951	4.72246694
Ti	25.72236443	9.22302643	4.81569822
Ti	14.18373108	9.14902152	4.66598159
Ti	29.49529722	9.14731336	4.75969837
Ti	18.13658728	9.23837290	4.67083415
Ti	12.37265284	4.04800043	4.67689104
Ti	27.54996508	3.91965798	4.65891288
Ti	16.17767735	3.99863179	4.76053881
Ti	19.85776571	4.01384649	4.73871421
Ti	12.28860397	1.22813463	5.71878816
Ti	27.57315735	1.06305681	5.56225446
Ti	15.97203423	1.17827030	5.72027042
Ti	19.94781624	0.98213375	5.40781481
Ti	10.36857164	6.36545292	5.60125950
Ti	25.61344273	6.27173198	5.43497238
Ti	14.27385696	6.24510384	5.48828870
Ti	29.42018930	6.25876334	5.52521402
Ti	18.03113691	6.31104408	5.47309172
O	21.80187804	7.36944090	3.91893383
O	8.49651557	1.97879866	3.98607448
O	23.79612728	2.08169891	3.97547137
O	8.51139047	9.75478956	4.65343687
O	23.80274286	9.54345233	4.85637898
O	21.86853775	4.47371296	4.96506267
O	21.80297356	0.52412354	5.50127453
O	8.51785902	5.74127487	5.76239022
O	23.67682306	5.95257706	5.54726254
O	8.73678672	2.74041242	6.43498337
O	23.77896656	2.88040279	6.42011333
O	21.57098391	8.13097959	6.24376185
O	10.29408365	7.26136244	3.95201368
O	25.75784411	7.28900877	3.94757232
O	14.14829207	7.28253326	3.88472133
O	29.47984064	7.30672831	3.94582478
O	18.08983865	7.38043928	3.93421590
O	12.29873439	2.17669607	4.01796830
O	27.50201923	2.06755618	3.91805459
O	16.09452824	2.02185606	4.01121077
O	19.95141227	2.14030223	3.87757106
O	12.23206714	9.61380518	4.71415179
O	27.62167202	9.62068402	4.69062738
O	16.10521390	9.61243172	4.92885938
O	19.95115153	9.73454112	4.60760744
O	10.42285617	4.35686467	4.97562352
O	25.65372022	4.44949407	4.90118035
O	14.26046323	4.29917109	4.95360290
O	29.41483958	4.23377438	4.88942576
O	18.01180055	4.40325031	4.83427279
O	10.44336001	0.53572144	5.83085346
O	25.65628556	0.47957501	5.85111868
O	14.18727857	1.01744144	6.25395723
O	29.50431166	0.57360826	5.60281382
O	18.06558296	0.66904358	5.83019766
O	12.27111517	5.82006067	5.69184617
O	27.55062585	5.63590152	5.72692668
O	16.17618022	5.74842373	5.71671787
O	19.88454002	5.71555840	5.77432126
O	12.23407239	2.95845627	6.43105528
O	27.52742826	2.70536676	6.44211620
O	16.24287190	2.93754071	6.47068519
O	20.05765731	2.74087189	6.24020341
O	10.47981287	8.11097084	6.32694665
O	25.58856047	7.93416468	6.38008116
O	14.09330216	8.03631933	6.30877173
O	29.38753412	7.99251983	6.48463612
O	18.06617696	8.11008275	6.32984915
Ti	6.67023024	19.55852782	4.68405964
Ti	6.60115893	30.22654246	4.74211709
Ti	6.59460795	16.79205028	5.58769518
Ti	6.62807205	27.35360884	5.59578098
Ti	2.85851363	19.85340405	4.72708230
Ti	2.86168452	30.25750582	4.70009695
Ti	0.83517305	14.37572567	4.68194074
Ti	0.97609926	24.96890487	4.86730380
Ti	4.60620543	14.54545846	4.61930698
Ti	4.75071556	25.02640689	4.75514255
Ti	0.80705370	11.49406470	5.55352938
Ti	0.86735311	22.08315179	5.53616316
Ti	4.64946564	11.60430662	5.48007953
Ti	4.83103307	22.12474400	5.61247231
Ti	2.73810437	16.97817344	5.63542546
Ti	2.72276491	27.30318033	5.49770929
O	6.46326758	17.86562901	3.86150568
O	6.58920428	28.37931284	3.99214080
O	6.55505543	14.80807961	4.98348791
O	6.63202263	25.46261833	4.66543623
O	6.70350902	11.08621133	5.70774235
O	6.62890343	21.83502938	6.19003486
O	6.92055003	18.54756710	6.43354344
O	6.36605704	29.08983143	6.48003724
O	2.66861432	17.86206323	3.98856251
O	2.76326340	28.38169966	3.93807963
O	0.79009579	12.44254640	3.90512300
O	0.99217385	23.13591084	3.98785765
O	4.83716013	12.68312003	3.88579139
O	4.82874975	23.07009196	3.93183236
O	0.84201904	20.17675733	4.80726465
O	0.90425854	30.58625477	4.79985628
O	4.89369702	20.25915218	4.86656922
O	4.69562055	30.70444403	4.66033783
O	2.71180094	15.00652901	4.98801667
O	2.85242846	25.39151206	4.77797938
O	2.73934335	11.01655316	5.76393019
O	2.83629763	21.65890652	5.75335053
O	0.88234578	16.94284525	6.02636218
O	0.80473144	26.78232210	5.75121817
O	4.68696543	16.52409724	5.65491535
O	4.70200431	26.80062119	5.72711421
O	0.74354346	13.26095693	6.31696950
O	1.11765426	23.75240476	6.44649927
O	4.68168639	13.33840481	6.29216198
O	4.63772043	23.88616282	6.32805579
O	2.96215230	18.77145011	6.29928337
O	2.86820848	29.12788742	6.35163563
Ti	21.92019570	19.76129833	4.72920040
Ti	21.86899322	30.11657633	4.76733525
Ti	8.50023068	14.49775777	4.70337212
Ti	8.53359179	25.01783426	4.73119592
Ti	23.83751803	14.52740793	4.71056543
Ti	23.71541819	24.95916405	4.78018165
Ti	8.58096873	11.58138787	5.38322274
Ti	8.53618299	22.14685548	5.57441867
Ti	23.80808929	11.48490113	5.46631895
Ti	23.70182321	22.05369003	5.48969249
Ti	22.08616956	16.88216033	5.52444253
Ti	21.90059077	27.26750800	5.47825839
Ti	10.31065123	19.71060234	4.79810522
Ti	10.55730399	30.14506882	4.78641384
Ti	25.70600868	19.73932702	4.75304759
Ti	25.67618513	30.20458462	4.82307141
Ti	14.21898969	19.67973916	4.69628741
Ti	14.21318207	30.07666614	4.64695974
Ti	29.44340971	19.84068783	4.64423273
Ti	29.46257181	30.18682678	4.67697959
Ti	18.07643840	19.76153015	4.72590029
Ti	18.06636962	30.22511045	4.81650199
Ti	12.35294883	14.48314906	4.77436040
Ti	12.31385760	24.92312250	4.69359321
Ti	27.62387437	14.59770487	4.77835238
Ti	27.56443447	24.91352646	4.66566320
Ti	16.25658520	14.49975162	4.84395737
Ti	16.14071009	24.90803569	4.87689746
Ti	20.10870907	14.46084793	4.64361983
Ti	19.96782842	24.85646157	4.82080261
Ti	12.31698450	11.57735502	5.45431998
Ti	12.31623385	22.04120803	5.48112973
Ti	27.57441428	11.50218376	5.39986666
Ti	27.44420577	22.03127801	5.51347989
Ti	16.16416106	11.57058336	5.58746610
Ti	16.15590882	21.91595139	5.38887709
Ti	20.03113781	11.61416717	5.54288286
Ti	20.00255924	21.94328378	5.42200233
Ti	10.48998187	16.79665058	5.43430920
Ti	10.45309140	27.21739843	5.50313455
Ti	25.73430309	16.83302957	5.60330048
Ti	25.59572050	27.29538612	5.52040127
Ti	14.32114568	16.73380079	5.78972680
Ti	14.24687992	27.15337462	5.65635378
Ti	29.60342177	16.95342616	5.54376927
Ti	29.41281822	27.31817641	5.46685598
Ti	18.08466909	16.78218353	5.42141969
Ti	18.03761327	27.32858305	5.45572132
O	21.91929024	18.00217035	3.94767268
O	21.69641830	28.26549130	3.84764946
O	8.46309410	12.67750906	3.87902745
O	8.65650472	23.12651643	4.00754060
O	23.82788466	12.48084607	3.93155775
O	23.84676897	22.99492602	3.92887526
O	8.48388290	20.29848645	4.76795035
O	8.55594090	30.52650262	4.93881431
O	23.86270674	20.17555736	4.53641513
O	23.78048190	30.69358341	4.79366405
O	21.97712847	14.96376353	5.04723721
O	21.79624350	25.29771034	4.77973460
O	21.94975888	11.14393223	5.78249526
O	21.86805582	21.61706696	5.81340587
O	8.51959676	16.30479987	5.52413077
O	8.53939106	26.89649166	5.64429207
O	23.87552245	16.27626074	5.90580422
O	23.77419940	26.66827408	5.87777479
O	8.52532510	13.33963616	6.34111338
O	8.59516190	23.91511736	6.49980840
O	23.89518851	13.24803960	6.23407326
O	23.85833705	23.80383356	6.43699633
O	22.09667020	18.71364010	6.34242185
O	22.07397542	29.07734760	6.36223137
O	10.58673191	17.84477441	3.85875374
O	10.40676197	28.36842370	3.89832590
O	25.71905073	17.89098965	3.99294423
O	25.83928974	28.34078297	3.96813207
O	14.18461179	17.66745182	3.95529818
O	14.37382620	28.21522393	4.10309698
O	29.55421595	17.98041972	3.93103380
O	29.47524438	28.37792425	3.91101287
O	18.17688395	17.84707755	3.88502743
O	17.95099951	28.45092234	3.91909098
O	12.30394644	12.62210369	3.87351766
O	12.45367828	23.09291509	3.97776205
O	27.58501129	12.66430292	3.99232027
O	27.50023125	23.01796414	3.93329478
O	16.01081847	12.58701459	3.96042892
O	16.19297081	23.12305993	3.93033635
O	19.89843668	12.59558737	3.94549083
O	19.97640302	23.07533020	3.92211971
O	12.28843724	20.19354018	4.82657084
O	12.47745949	30.77964158	4.86472364
O	27.59069799	20.04736442	4.89027378
O	27.61446277	30.51846340	4.92985789
O	16.11551914	20.07121697	4.59253831
O	16.00698179	30.73528516	5.01803511
O	20.03591452	20.11754609	4.63613066
O	19.97546404	30.53838106	4.94435236
O	10.42330573	14.91546481	4.64391544
O	10.42609358	25.34201536	4.79150960
O	25.76438291	14.97909123	4.78428610
O	25.60744239	25.41757428	4.75748393
O	14.26791333	14.83434272	4.85562355
O	14.22435331	25.40679659	4.76409312
O	29.54323053	15.09305944	4.76176273
O	29.41667127	25.24102618	4.76878154
O	18.22797699	14.84871363	4.79322348
O	18.01841313	25.40295396	4.89866007
O	10.40749460	11.14385636	5.74163289
O	10.41615500	21.58387325	5.77197135
O	25.71672512	10.96211906	5.86973801
O	25.59630225	21.44913640	5.94306155
O	14.26005570	11.20506320	5.57652317
O	14.24764794	21.52036496	5.62374813
O	29.42654739	10.95549029	5.80950463
O	29.39722267	21.84839283	5.86612838
O	18.08479851	11.15426994	5.61166600
O	18.10271718	21.52023150	5.76830931
O	12.33063857	16.44777518	5.73517079
O	12.27427695	26.77909742	5.77852280
O	27.61505659	16.42304751	5.73989524
O	27.53837408	26.81613816	5.62594544
O	16.17435769	16.30297198	5.73316846
O	16.16939158	26.68152552	5.88706874
O	20.10696980	16.31146042	5.69832257
O	19.95919982	26.86405259	5.68483209
O	12.28653138	13.31104281	6.29609432
O	12.17412935	23.79200831	6.43113507
O	27.44390108	13.47055864	6.30729922
O	27.47161860	23.80393741	6.42409563
O	16.04525510	13.34598248	6.35170463
O	15.99989927	23.63119306	6.37022967
O	20.02249815	13.39831926	6.27250561
O	19.88077708	23.74000412	6.35392954
O	10.37890204	18.49859186	6.23883264
O	10.58717268	28.94846216	6.26579290
O	25.61090119	18.59876494	6.43350837
O	25.56657237	28.98584531	6.36901224
O	14.29937867	18.63393646	6.30240249
O	14.11442200	29.00879220	6.40359020
O	29.32230903	18.77303469	6.36820682
O	29.61859646	29.04463244	6.29414060
O	18.01269207	18.52366818	6.23491707
O	17.93085198	28.92213636	6.42412754
H	12.58824737	14.62546105	7.66502014
H	12.51655336	15.28504849	11.19077957
H	15.20782492	18.10846299	9.14080895
O	14.25627178	16.15302778	7.66062772
O	12.77116037	14.84391422	8.63595375
C	13.66773257	15.85830364	8.74322206
C	13.90328458	16.49888297	10.00571830
C	13.22410792	16.12263198	11.15193412
C	14.74448988	17.63870173	10.09260055
N	12.96386882	19.66087584	15.54032041
N	15.88028220	21.79729116	17.36689668
N	15.83386975	20.15021053	14.97604109
N	13.00051620	21.37028163	18.00865459
C	21.65268269	20.30256982	16.14503483
C	14.54978241	24.84668212	22.55678244
C	7.25433087	20.83506681	16.95706549
C	19.37371145	21.30818551	15.73402550
C	14.59732803	24.00870015	20.21736578
C	9.59117593	20.17933513	17.05351642
C	21.44305428	22.53033319	15.16920692
C	14.62376402	26.32228223	20.63203783
C	7.84625018	18.69282795	17.85971713
C	14.32118577	18.70821668	13.59674136
C	17.88279922	21.20286166	15.92890296
C	14.54591228	22.86888265	19.23520648
C	11.06892138	20.45913449	16.90629667
C	15.58383061	19.14462352	14.05371208
C	17.16084724	20.34679798	15.10137266
C	13.26079789	22.35869917	18.90362570
C	11.68388766	21.13705909	17.94941644
C	16.82187937	18.71979585	13.54200296
C	17.82957858	19.48312665	14.11745648
C	12.03111626	22.57400300	19.63322976
C	10.99006364	21.93902125	18.94224305
C	13.09836158	19.11779424	14.26685350
C	17.25497530	21.85473358	17.05449859
C	15.72179416	22.60484868	18.52116001
C	11.61157693	19.84305907	15.75567934
C	11.76076807	18.93696286	13.70865102
C	17.90797036	22.77908614	17.92808011
C	17.01576647	23.30692812	18.78201614
C	10.86253966	19.30557404	14.66360821
H	11.53291058	18.59008700	12.69030319
H	18.90604532	23.07979131	17.72268218
H	17.25759595	23.93168394	19.67940448
H	9.77133658	19.12460810	14.58057343
H	17.01463474	18.01512869	12.72695640
H	18.86037848	19.37587575	13.82018185
H	11.90357430	23.19515141	20.52401025
H	9.94794975	21.88343013	19.27824437
H	21.91257478	23.43811895	14.75344723
H	14.61030822	27.37521182	20.24938501
H	7.58644368	17.74067424	18.41051913
H	22.21267719	19.46723324	16.52617879
H	14.50859756	24.59891382	23.61175712
H	6.42670488	21.49889185	16.60427454
H	15.11838468	20.67516211	15.46098048
H	13.71181497	20.95683367	17.41858464
C	23.70205006	21.50730647	15.81925340
H	24.06688573	22.38887916	15.24993299
H	24.11304849	20.64993802	15.35435660
H	24.07450199	21.55459781	16.87921546
C	19.61996285	19.09066019	16.98556770
H	19.91478411	18.08850065	16.63856634
H	18.54284178	19.23250805	16.88447586
H	19.83463145	19.23860472	18.05149841
C	19.19773161	23.48293209	14.42951006
H	19.68764695	23.94494367	13.58669317
H	18.95394916	24.32401406	15.14249709
H	18.20811054	23.06977132	14.06846918
C	10.12892734	17.84212362	17.88330505
H	9.59991118	16.93023828	17.96725526
H	10.66257804	18.15322365	18.81785650
H	10.95983705	17.69722124	17.17787363
C	8.96392324	22.35331686	15.99378553
H	8.75035861	23.23624098	16.64133072
H	8.40357937	22.56375353	15.04408138
H	10.02303757	22.29000044	15.62585648
C	5.45323659	19.35701691	17.80943463
H	5.20857065	18.24517762	17.80019562
H	4.89311126	19.81589999	17.02125116
H	5.18947705	19.81190391	18.82410071
C	14.51325585	25.60029772	18.26361431
H	13.46485027	25.65484741	17.93399143
H	15.03522576	24.82514101	17.66108853
H	14.95506994	26.52945513	18.09194500
C	14.82472848	22.35690122	22.15276088
H	14.44717561	21.60538882	21.42721367
H	14.23118947	22.24526641	23.09395716
H	15.86920808	22.08414961	22.30795547
C	14.52782211	27.27372851	23.04558786
H	13.79871506	27.99503513	22.73652337
H	15.55924829	27.70869549	23.03515434
H	14.33153197	26.96106108	24.07516622
C	22.21673624	21.47652124	15.67276564
C	20.24109598	20.26758801	16.26562059
C	20.02369190	22.41308744	15.11300754
C	14.60263735	25.32609369	19.70031206
C	14.65850467	23.74114513	21.63749583
C	14.52939993	26.13346949	22.05280111
C	9.22719749	18.91931921	17.54929871
C	8.57960193	21.11187304	16.64676596
C	6.87814158	19.64767976	17.54940928
H	12.65084803	16.57832331	13.07892783
H	15.79998494	19.11669784	11.31164346
C	14.26013808	17.95526447	12.39702677
C	13.32396636	16.92907782	12.31993291
C	15.00671179	18.34843587	11.23576649

Ti O H C N 0
6-31G*
****

