%chk=f00013780.chk
%mem=24GB
%nproc=12
#p b3lyp/6-31G*

title

0 1
Ti	2.81187400	0.19704000	1.10336000
Ti	0.90594400	5.44057000	1.10336000
Ti	4.71781400	5.44057000	1.10336000
Ti	0.90594400	2.47241000	1.99114000
Ti	4.71781400	2.47241000	1.99114000
Ti	2.81187400	7.71594000	1.99115000
O	2.81187400	8.81302000	0.37332000
O	0.90594400	3.56949000	0.37332000
O	4.71781400	3.56949000	0.37332000
O	0.90594400	0.60134000	1.26110000
O	4.71781400	0.60134000	1.26110000
O	2.81187400	5.84486000	1.26111000
O	2.81187400	2.06812000	1.83340000
O	0.90594400	7.31164000	1.83340000
O	4.71781400	7.31164000	1.83340000
O	0.90594400	4.34349000	2.72118000
O	4.71781400	4.34349000	2.72118000
O	2.81187400	9.58701000	2.72118000
Ti	6.62374588	0.19704000	1.10336000
Ti	21.87123776	0.19704000	1.10336000
Ti	8.52968588	5.44057000	1.10336000
Ti	23.77717776	5.44057000	1.10336000
Ti	8.52968588	2.47241000	1.99114000
Ti	23.77717776	2.47241000	1.99114000
Ti	6.62374588	7.71594000	1.99115000
Ti	21.87123776	7.71594000	1.99115000
Ti	10.43561588	0.19704000	1.10336000
Ti	25.68310776	0.19704000	1.10336000
Ti	14.24749588	0.19704000	1.10336000
Ti	29.49498776	0.19704000	1.10336000
Ti	18.05936588	0.19704000	1.10336000
Ti	12.34155588	5.44057000	1.10336000
Ti	27.58904776	5.44057000	1.10336000
Ti	16.15343588	5.44057000	1.10336000
Ti	19.96530588	5.44057000	1.10336000
Ti	12.34155588	2.47241000	1.99114000
Ti	27.58904776	2.47241000	1.99114000
Ti	16.15343588	2.47241000	1.99114000
Ti	19.96530588	2.47241000	1.99114000
Ti	10.43561588	7.71594000	1.99115000
Ti	25.68310776	7.71594000	1.99115000
Ti	14.24749588	7.71594000	1.99115000
Ti	29.49498776	7.71594000	1.99115000
Ti	18.05936588	7.71594000	1.99115000
O	6.62374588	8.81302000	0.37332000
O	21.87123776	8.81302000	0.37332000
O	8.52968588	3.56949000	0.37332000
O	23.77717776	3.56949000	0.37332000
O	8.52968588	0.60134000	1.26110000
O	23.77717776	0.60134000	1.26110000
O	6.62374588	5.84486000	1.26111000
O	21.87123776	5.84486000	1.26111000
O	6.62374588	2.06812000	1.83340000
O	21.87123776	2.06812000	1.83340000
O	8.52968588	7.31164000	1.83340000
O	23.77717776	7.31164000	1.83340000
O	8.52968588	4.34349000	2.72118000
O	23.77717776	4.34349000	2.72118000
O	6.62374588	9.58701000	2.72118000
O	21.87123776	9.58701000	2.72118000
O	10.43561588	8.81302000	0.37332000
O	25.68310776	8.81302000	0.37332000
O	14.24749588	8.81302000	0.37332000
O	29.49498776	8.81302000	0.37332000
O	18.05936588	8.81302000	0.37332000
O	12.34155588	3.56949000	0.37332000
O	27.58904776	3.56949000	0.37332000
O	16.15343588	3.56949000	0.37332000
O	19.96530588	3.56949000	0.37332000
O	12.34155588	0.60134000	1.26110000
O	27.58904776	0.60134000	1.26110000
O	16.15343588	0.60134000	1.26110000
O	19.96530588	0.60134000	1.26110000
O	10.43561588	5.84486000	1.26111000
O	25.68310776	5.84486000	1.26111000
O	14.24749588	5.84486000	1.26111000
O	29.49498776	5.84486000	1.26111000
O	18.05936588	5.84486000	1.26111000
O	10.43561588	2.06812000	1.83340000
O	25.68310776	2.06812000	1.83340000
O	14.24749588	2.06812000	1.83340000
O	29.49498776	2.06812000	1.83340000
O	18.05936588	2.06812000	1.83340000
O	12.34155588	7.31164000	1.83340000
O	27.58904776	7.31164000	1.83340000
O	16.15343588	7.31164000	1.83340000
O	19.96530588	7.31164000	1.83340000
O	12.34155588	4.34349000	2.72118000
O	27.58904776	4.34349000	2.72118000
O	16.15343588	4.34349000	2.72118000
O	19.96530588	4.34349000	2.72118000
O	10.43561588	9.58701000	2.72118000
O	25.68310776	9.58701000	2.72118000
O	14.24749588	9.58701000	2.72118000
O	29.49498776	9.58701000	2.72118000
O	18.05936588	9.58701000	2.72118000
Ti	2.81187400	10.68408607	1.10336000
Ti	2.81187400	21.17113214	1.10336000
Ti	0.90594400	15.92761607	1.10336000
Ti	0.90594400	26.41466214	1.10336000
Ti	4.71781400	15.92761607	1.10336000
Ti	4.71781400	26.41466214	1.10336000
Ti	0.90594400	12.95945607	1.99114000
Ti	0.90594400	23.44650214	1.99114000
Ti	4.71781400	12.95945607	1.99114000
Ti	4.71781400	23.44650214	1.99114000
Ti	2.81187400	18.20298607	1.99115000
Ti	2.81187400	28.69003214	1.99115000
O	2.81187400	19.30006607	0.37332000
O	2.81187400	29.78711214	0.37332000
O	0.90594400	14.05653607	0.37332000
O	0.90594400	24.54358214	0.37332000
O	4.71781400	14.05653607	0.37332000
O	4.71781400	24.54358214	0.37332000
O	0.90594400	11.08838607	1.26110000
O	0.90594400	21.57543214	1.26110000
O	4.71781400	11.08838607	1.26110000
O	4.71781400	21.57543214	1.26110000
O	2.81187400	16.33190607	1.26111000
O	2.81187400	26.81895214	1.26111000
O	2.81187400	12.55516607	1.83340000
O	2.81187400	23.04221214	1.83340000
O	0.90594400	17.79868607	1.83340000
O	0.90594400	28.28573214	1.83340000
O	4.71781400	17.79868607	1.83340000
O	4.71781400	28.28573214	1.83340000
O	0.90594400	14.83053607	2.72118000
O	0.90594400	25.31758214	2.72118000
O	4.71781400	14.83053607	2.72118000
O	4.71781400	25.31758214	2.72118000
O	2.81187400	20.07405607	2.72118000
O	2.81187400	30.56110214	2.72118000
Ti	6.62374588	10.68408607	1.10336000
Ti	6.62374588	21.17113214	1.10336000
Ti	21.87123776	10.68408607	1.10336000
Ti	21.87123776	21.17113214	1.10336000
Ti	8.52968588	15.92761607	1.10336000
Ti	8.52968588	26.41466214	1.10336000
Ti	23.77717776	15.92761607	1.10336000
Ti	23.77717776	26.41466214	1.10336000
Ti	8.52968588	12.95945607	1.99114000
Ti	8.52968588	23.44650214	1.99114000
Ti	23.77717776	12.95945607	1.99114000
Ti	23.77717776	23.44650214	1.99114000
Ti	6.62374588	18.20298607	1.99115000
Ti	6.62374588	28.69003214	1.99115000
Ti	21.87123776	18.20298607	1.99115000
Ti	21.87123776	28.69003214	1.99115000
Ti	10.43561588	10.68408607	1.10336000
Ti	10.43561588	21.17113214	1.10336000
Ti	25.68310776	10.68408607	1.10336000
Ti	25.68310776	21.17113214	1.10336000
Ti	14.24749588	10.68408607	1.10336000
Ti	14.24749588	21.17113214	1.10336000
Ti	29.49498776	10.68408607	1.10336000
Ti	29.49498776	21.17113214	1.10336000
Ti	18.05936588	10.68408607	1.10336000
Ti	18.05936588	21.17113214	1.10336000
Ti	12.34155588	15.92761607	1.10336000
Ti	12.34155588	26.41466214	1.10336000
Ti	27.58904776	15.92761607	1.10336000
Ti	27.58904776	26.41466214	1.10336000
Ti	16.15343588	15.92761607	1.10336000
Ti	16.15343588	26.41466214	1.10336000
Ti	19.96530588	15.92761607	1.10336000
Ti	19.96530588	26.41466214	1.10336000
Ti	12.34155588	12.95945607	1.99114000
Ti	12.34155588	23.44650214	1.99114000
Ti	27.58904776	12.95945607	1.99114000
Ti	27.58904776	23.44650214	1.99114000
Ti	16.15343588	12.95945607	1.99114000
Ti	16.15343588	23.44650214	1.99114000
Ti	19.96530588	12.95945607	1.99114000
Ti	19.96530588	23.44650214	1.99114000
Ti	10.43561588	18.20298607	1.99115000
Ti	10.43561588	28.69003214	1.99115000
Ti	25.68310776	18.20298607	1.99115000
Ti	25.68310776	28.69003214	1.99115000
Ti	14.24749588	18.20298607	1.99115000
Ti	14.24749588	28.69003214	1.99115000
Ti	29.49498776	18.20298607	1.99115000
Ti	29.49498776	28.69003214	1.99115000
Ti	18.05936588	18.20298607	1.99115000
Ti	18.05936588	28.69003214	1.99115000
O	6.62374588	19.30006607	0.37332000
O	6.62374588	29.78711214	0.37332000
O	21.87123776	19.30006607	0.37332000
O	21.87123776	29.78711214	0.37332000
O	8.52968588	14.05653607	0.37332000
O	8.52968588	24.54358214	0.37332000
O	23.77717776	14.05653607	0.37332000
O	23.77717776	24.54358214	0.37332000
O	8.52968588	11.08838607	1.26110000
O	8.52968588	21.57543214	1.26110000
O	23.77717776	11.08838607	1.26110000
O	23.77717776	21.57543214	1.26110000
O	6.62374588	16.33190607	1.26111000
O	6.62374588	26.81895214	1.26111000
O	21.87123776	16.33190607	1.26111000
O	21.87123776	26.81895214	1.26111000
O	6.62374588	12.55516607	1.83340000
O	6.62374588	23.04221214	1.83340000
O	21.87123776	12.55516607	1.83340000
O	21.87123776	23.04221214	1.83340000
O	8.52968588	17.79868607	1.83340000
O	8.52968588	28.28573214	1.83340000
O	23.77717776	17.79868607	1.83340000
O	23.77717776	28.28573214	1.83340000
O	8.52968588	14.83053607	2.72118000
O	8.52968588	25.31758214	2.72118000
O	23.77717776	14.83053607	2.72118000
O	23.77717776	25.31758214	2.72118000
O	6.62374588	20.07405607	2.72118000
O	6.62374588	30.56110214	2.72118000
O	21.87123776	20.07405607	2.72118000
O	21.87123776	30.56110214	2.72118000
O	10.43561588	19.30006607	0.37332000
O	10.43561588	29.78711214	0.37332000
O	25.68310776	19.30006607	0.37332000
O	25.68310776	29.78711214	0.37332000
O	14.24749588	19.30006607	0.37332000
O	14.24749588	29.78711214	0.37332000
O	29.49498776	19.30006607	0.37332000
O	29.49498776	29.78711214	0.37332000
O	18.05936588	19.30006607	0.37332000
O	18.05936588	29.78711214	0.37332000
O	12.34155588	14.05653607	0.37332000
O	12.34155588	24.54358214	0.37332000
O	27.58904776	14.05653607	0.37332000
O	27.58904776	24.54358214	0.37332000
O	16.15343588	14.05653607	0.37332000
O	16.15343588	24.54358214	0.37332000
O	19.96530588	14.05653607	0.37332000
O	19.96530588	24.54358214	0.37332000
O	12.34155588	11.08838607	1.26110000
O	12.34155588	21.57543214	1.26110000
O	27.58904776	11.08838607	1.26110000
O	27.58904776	21.57543214	1.26110000
O	16.15343588	11.08838607	1.26110000
O	16.15343588	21.57543214	1.26110000
O	19.96530588	11.08838607	1.26110000
O	19.96530588	21.57543214	1.26110000
O	10.43561588	16.33190607	1.26111000
O	10.43561588	26.81895214	1.26111000
O	25.68310776	16.33190607	1.26111000
O	25.68310776	26.81895214	1.26111000
O	14.24749588	16.33190607	1.26111000
O	14.24749588	26.81895214	1.26111000
O	29.49498776	16.33190607	1.26111000
O	29.49498776	26.81895214	1.26111000
O	18.05936588	16.33190607	1.26111000
O	18.05936588	26.81895214	1.26111000
O	10.43561588	12.55516607	1.83340000
O	10.43561588	23.04221214	1.83340000
O	25.68310776	12.55516607	1.83340000
O	25.68310776	23.04221214	1.83340000
O	14.24749588	12.55516607	1.83340000
O	14.24749588	23.04221214	1.83340000
O	29.49498776	12.55516607	1.83340000
O	29.49498776	23.04221214	1.83340000
O	18.05936588	12.55516607	1.83340000
O	18.05936588	23.04221214	1.83340000
O	12.34155588	17.79868607	1.83340000
O	12.34155588	28.28573214	1.83340000
O	27.58904776	17.79868607	1.83340000
O	27.58904776	28.28573214	1.83340000
O	16.15343588	17.79868607	1.83340000
O	16.15343588	28.28573214	1.83340000
O	19.96530588	17.79868607	1.83340000
O	19.96530588	28.28573214	1.83340000
O	12.34155588	14.83053607	2.72118000
O	12.34155588	25.31758214	2.72118000
O	27.58904776	14.83053607	2.72118000
O	27.58904776	25.31758214	2.72118000
O	16.15343588	14.83053607	2.72118000
O	16.15343588	25.31758214	2.72118000
O	19.96530588	14.83053607	2.72118000
O	19.96530588	25.31758214	2.72118000
O	10.43561588	20.07405607	2.72118000
O	10.43561588	30.56110214	2.72118000
O	25.68310776	20.07405607	2.72118000
O	25.68310776	30.56110214	2.72118000
O	14.24749588	20.07405607	2.72118000
O	14.24749588	30.56110214	2.72118000
O	29.49498776	20.07405607	2.72118000
O	29.49498776	30.56110214	2.72118000
O	18.05936588	20.07405607	2.72118000
O	18.05936588	30.56110214	2.72118000
Ti	6.63443802	9.21669504	4.72978852
Ti	6.70124797	6.29648385	5.42787966
Ti	2.77227621	9.12033022	4.74462210
Ti	0.91684086	4.05071695	4.73954830
Ti	4.81561315	3.93751114	4.66238424
Ti	0.95229585	1.12737484	5.55103332
Ti	4.78074484	1.05678744	5.53339912
Ti	2.82523879	6.20882782	5.52470638
O	6.55442979	7.39489584	3.90926989
O	6.66997156	4.36767706	4.94150886
O	6.69880738	0.57266468	5.61153685
O	6.45453394	7.96774046	6.33395494
O	2.92688811	7.29873660	3.97400087
O	0.82207972	2.22380944	4.01054316
O	4.89919410	2.04622317	3.90051466
O	0.91160048	9.67480641	4.82967567
O	4.67196631	9.56807886	4.81883830
O	2.86858356	4.46545126	4.59709628
O	2.94780676	0.72579814	5.78737969
O	0.88330070	5.74385071	5.92658319
O	4.74098722	5.75560436	5.52784988
O	0.73815647	2.94491412	6.38358358
O	4.84831847	2.90239148	6.24656520
O	2.88991538	7.96226980	6.51859272
Ti	21.87501070	9.21685834	4.80593536
Ti	8.52007370	3.92134774	4.65907447
Ti	23.84813420	3.85000857	4.81303440
Ti	8.59389149	0.99294691	5.39625184
Ti	23.84650718	0.97132198	5.53155218
Ti	22.02146928	6.27998146	5.48107510
Ti	10.47934377	9.26336270	4.86349687
Ti	25.69849870	9.05714221	4.70305031
Ti	14.27436758	9.24899566	4.85075291
Ti	29.53593356	9.25698008	4.69349803
Ti	18.03752099	9.21334207	4.71573011
Ti	12.38262916	3.94370094	4.78925869
Ti	27.67379362	3.96495936	4.80577696
Ti	16.13603737	3.96571511	4.68256797
Ti	20.10853771	3.83079026	4.89297799
Ti	12.33749851	1.03670357	5.45730264
Ti	27.66696458	1.05090644	5.43631212
Ti	16.18208039	1.08635211	5.54899912
Ti	20.05263409	0.96969619	5.49298005
Ti	10.37843242	6.31405856	5.49238760
Ti	25.79597060	6.24186721	5.46906936
Ti	14.21789151	6.27220848	5.40779246
Ti	29.50563374	6.36785106	5.47777488
Ti	18.20601428	6.26013283	5.53412025
O	21.70864985	7.27954012	3.95142050
O	8.56829171	2.04838829	3.84864486
O	23.89549800	2.01072367	4.00815079
O	8.52594580	9.69739570	4.80080195
O	23.81304117	9.53194240	4.88034935
O	21.95646709	4.48824051	4.62183768
O	21.96741179	0.50306222	5.70800139
O	8.50061599	5.73204919	5.73301306
O	23.91370220	5.66101332	5.78974792
O	8.72775660	2.78681707	6.32222340
O	24.04719341	2.71295510	6.43720749
O	21.85830990	8.08444388	6.29990569
O	10.30763552	7.50953360	3.91411277
O	25.82216832	7.28044339	3.92355119
O	14.16230481	7.35706172	3.93029694
O	29.62345445	7.47218947	3.87513338
O	18.12150967	7.29574459	3.96097676
O	12.25848849	1.94105997	3.82693802
O	27.43619362	2.07470710	3.88789455
O	16.12273919	2.07377040	3.92244904
O	20.18017962	2.03422071	3.93502640
O	12.40234124	9.56472751	5.11871423
O	27.59622374	9.59803250	4.62694832
O	16.14793268	9.71463216	4.81069938
O	19.99375356	9.64569965	4.82621688
O	10.46191381	4.36003607	4.82632946
O	25.77305823	4.37736124	4.67358446
O	14.25872806	4.28668868	4.84417972
O	29.51500700	4.48805085	4.81204892
O	18.19716836	4.28094665	4.87300074
O	10.40565353	0.53064246	5.70101828
O	25.73015172	0.53206285	5.71093569
O	14.20381470	0.66770327	5.60431349
O	29.59218398	0.72104849	5.71249657
O	18.16138411	0.60906085	5.68052063
O	12.28862606	5.79014499	5.67907763
O	27.61649692	5.88173666	5.66999132
O	16.13533396	5.78451699	5.58742803
O	20.11717594	5.73293697	5.84876062
O	12.21505698	2.76167126	6.33203451
O	27.61975346	2.78852405	6.43283836
O	16.08672877	2.73220899	6.32777120
O	20.19092912	2.70761633	6.33376005
O	10.39193557	8.07219234	6.36250933
O	25.85845077	7.91922543	6.38121734
O	14.25204525	7.95341935	6.29141594
O	29.31201265	8.08699669	6.31333039
O	18.11543776	8.15662112	6.30158751
Ti	6.52729516	19.63395282	4.90613478
Ti	6.72881289	30.20787227	4.74896402
Ti	6.64746120	16.67756843	5.58649587
Ti	6.71392581	27.34524434	5.59435857
Ti	2.61440498	19.68917925	4.69661210
Ti	2.93976673	30.25179832	4.74354872
Ti	0.93036457	14.45155465	4.71042487
Ti	0.92701131	25.06837261	4.68201825
Ti	4.79446967	14.32896228	4.75808376
Ti	4.72549342	24.96126836	4.78078586
Ti	0.95382729	11.53303900	5.54143029
Ti	0.89889749	22.19854303	5.49704309
Ti	4.74139451	11.44402106	5.49912372
Ti	4.67589071	22.06840264	5.52086706
Ti	2.83160276	16.79484118	5.51167881
Ti	2.80584228	27.35804580	5.53941905
O	6.56768511	17.82648776	3.95629352
O	6.60360371	28.35601668	3.95246419
O	6.62954242	14.88855096	4.74576936
O	6.59330703	25.33128283	4.78123635
O	6.64270480	11.04592439	5.97793864
O	6.52708058	21.52839441	5.73792136
O	6.64780299	18.49883840	6.32238403
O	6.57602578	29.02858656	6.43287183
O	2.85756942	17.85934980	3.93810635
O	2.84350002	28.39113737	4.01893122
O	0.78516082	12.54410467	3.95409048
O	0.90721101	23.07458441	3.86844864
O	4.74539014	12.46239529	3.87366013
O	4.74097118	23.03790062	3.90296656
O	0.85891878	20.26259201	4.96098194
O	1.01759786	30.76783321	4.78666765
O	4.54941986	20.14929492	4.65452392
O	4.78456725	30.64084986	4.77928342
O	2.84839125	14.78668480	4.90302151
O	2.86118993	25.47446845	4.85467730
O	2.83983078	10.91305261	5.89004778
O	2.73305277	21.55835476	5.76730644
O	0.89424072	16.34245740	5.68769793
O	0.89905671	26.78544059	5.74581962
O	4.75658144	16.25691005	5.84076586
O	4.69753559	26.83920201	5.92684738
O	0.90907257	13.38323785	6.38494836
O	0.94534675	23.93045547	6.25076626
O	4.88963135	13.23819787	6.41271296
O	4.61180594	23.84269940	6.39837805
O	2.82639702	18.46944049	6.33934621
O	2.77814372	29.16537686	6.36867990
Ti	21.88468375	19.79296337	4.79076107
Ti	22.03927597	30.16080904	4.78047789
Ti	8.56797100	14.44322226	4.65130534
Ti	8.56744075	24.89325726	4.81155833
Ti	23.86011644	14.32684943	4.69599281
Ti	23.76964326	25.06017821	4.83065321
Ti	8.58336018	11.56057701	5.48591672
Ti	8.48106830	21.98059276	5.58775384
Ti	24.01384487	11.39820362	5.53500385
Ti	23.69305628	22.15794608	5.53868707
Ti	22.00417936	16.86789257	5.64490774
Ti	21.87624853	27.30230713	5.57561008
Ti	10.42761954	19.67882607	4.75330886
Ti	10.55623426	30.15376571	4.88184398
Ti	25.63576232	19.75586456	4.71087792
Ti	25.81515508	30.24918865	4.71078602
Ti	14.22377334	19.66910203	4.72923400
Ti	14.34956554	30.13761837	4.75111098
Ti	29.43658981	19.75964259	4.75255623
Ti	29.56603763	30.23791768	4.75131494
Ti	17.94971768	19.66997541	4.77855477
Ti	18.12305917	30.20232645	4.70236401
Ti	12.38358979	14.38785678	4.68680347
Ti	12.37239314	24.81915841	4.67604747
Ti	27.49790316	14.47879888	4.80717490
Ti	27.58110417	25.01286636	4.69147912
Ti	16.14878095	14.46354493	4.70753911
Ti	16.11302230	24.85966156	4.68004255
Ti	20.11300433	14.50811583	4.74037486
Ti	19.96581747	24.97100803	4.91156822
Ti	12.35072814	11.56459164	5.59379397
Ti	12.35600150	21.85699356	5.57741915
Ti	27.57064592	11.51772447	5.47252213
Ti	27.46517899	22.11320989	5.46189769
Ti	16.21320362	11.61874586	5.53322835
Ti	16.12034907	22.00714045	5.51078548
Ti	20.09175915	11.53953664	5.46480782
Ti	19.93701616	22.00596449	5.56921086
Ti	10.43521539	16.81662327	5.55148825
Ti	10.47837532	27.24782874	5.42722325
Ti	25.73228306	16.93808827	5.67957734
Ti	25.73945386	27.36120416	5.51687281
Ti	14.18997819	16.80210443	5.74710254
Ti	14.20558303	27.21194477	5.41249103
Ti	29.48656328	16.84611814	5.49789504
Ti	29.50292369	27.35031829	5.56798092
Ti	18.19042159	16.76326303	5.47714938
Ti	18.00288748	27.22264142	5.42427110
O	22.13032186	17.86667342	4.06156225
O	21.71429113	28.31468782	3.99058231
O	8.68398912	12.55671034	3.90972614
O	8.44381181	23.15458491	4.04268630
O	23.81714588	12.55316720	3.96620991
O	23.49408177	23.09323681	3.93184348
O	8.49233189	20.09704936	4.87931803
O	8.60310704	30.53200977	4.76435128
O	23.72963132	20.23576838	4.85969305
O	23.89581075	30.57054698	4.83241695
O	22.05187906	14.86034033	5.03363395
O	21.82104281	25.35459996	4.98859426
O	21.88679504	11.02039396	5.82453741
O	21.84994623	21.46489884	5.91328243
O	8.50814479	16.25847246	5.83054505
O	8.52442078	26.68950693	5.88366088
O	23.77358647	16.67544584	6.24083731
O	23.80241164	26.89709551	5.90963941
O	8.54076590	13.25927248	6.34218756
O	8.39096071	23.70202574	6.43245211
O	23.97039665	13.26802315	6.36220956
O	23.73449209	23.89892863	6.36085715
O	21.86071300	18.65167862	6.36285306
O	22.08490049	29.01575213	6.38137412
O	10.29157222	17.86096040	3.94286726
O	10.61650226	28.37772879	3.90867299
O	25.64500126	17.84638449	4.01095796
O	25.73787583	28.26824472	3.86573027
O	14.28751469	17.77202884	3.97621191
O	14.10432878	28.34292195	3.94031776
O	29.49951045	17.88652589	3.95925793
O	29.48894794	28.32643757	4.01582877
O	18.36766279	17.85825627	3.94664270
O	18.00279626	28.26290941	3.85688592
O	12.33184324	12.53389320	3.97134845
O	12.20606922	22.98805136	3.96074384
O	27.31893920	12.67559478	3.95447503
O	27.72334583	23.17632366	3.89718015
O	16.11471783	12.56766983	3.91745783
O	16.36443631	22.94944577	3.87524046
O	20.19099519	12.47002045	3.90885621
O	20.17815290	23.08046526	4.02381210
O	12.26993716	20.01718209	4.80301369
O	12.40708899	30.52364651	5.03677185
O	27.54536667	20.25620906	4.75486209
O	27.70420044	30.69421015	4.72228127
O	16.08728238	20.18652252	4.84533040
O	16.23368194	30.58146214	4.99102682
O	19.87923071	20.14701017	4.69503008
O	20.09080353	30.52441879	4.91764427
O	10.47579185	14.96310367	4.75135498
O	10.54364752	25.30685934	4.79866310
O	25.64819106	15.06421324	4.97200985
O	25.65684618	25.48746620	4.83120310
O	14.36987508	14.85731603	5.00800852
O	14.29994619	25.27050410	4.91717503
O	29.42674647	14.95791648	4.83821779
O	29.56827253	25.42893972	4.90660929
O	18.14539810	14.82207388	4.74085606
O	18.04098511	25.22741082	4.93810090
O	10.45957679	11.05795343	5.76036682
O	10.41514171	21.60175111	5.63488354
O	25.81353556	10.87913872	6.00640073
O	25.58978150	21.63165866	5.82492073
O	14.26904342	11.08867814	5.78217125
O	14.25060677	21.50496772	5.83175114
O	29.47554173	11.05477481	5.64759008
O	29.40354212	21.64668557	5.72427780
O	18.10700911	11.02271299	5.60694922
O	18.01139480	21.51116566	5.80933533
O	12.36855500	16.35602789	5.59311493
O	12.33920581	26.67251108	5.89574791
O	27.61551787	16.21187438	6.02272964
O	27.61076414	26.85155794	5.86183727
O	16.32131421	16.38256781	5.54073475
O	16.12492684	26.80190003	5.66108429
O	20.07965162	16.24183445	5.82744678
O	19.91198217	26.72091141	5.95954098
O	12.38796442	13.34724764	6.38260538
O	12.33435361	23.69124889	6.42951035
O	27.44222765	13.23793159	6.37235670
O	27.63577082	23.77591855	6.45472489
O	16.26949295	13.30421770	6.35458111
O	16.25970403	23.78159031	6.42371491
O	19.89127419	13.31303810	6.17678839
O	19.78080700	23.66526914	6.44438505
O	10.24655800	18.55697401	6.43363442
O	10.21742334	28.93306225	6.36262730
O	25.83209952	18.78603859	6.42504315
O	25.90017284	29.04961148	6.32997821
O	13.99744006	18.61007314	6.32159004
O	14.22283289	28.95830650	6.39460356
O	29.26355580	18.67040270	6.34071882
O	29.66522741	29.03630605	6.40578957
O	18.03865837	18.56573212	6.35207507
O	18.14460108	28.95285034	6.31116388
H	15.79864021	14.60888636	7.78053327
H	16.38563058	15.63940870	10.95469792
H	13.46403479	18.16603724	8.95542344
O	14.24825309	16.08780205	7.61799037
O	15.88459605	15.00242315	8.68347589
C	15.02457402	15.95244262	8.71733326
C	14.91158351	16.80478534	9.86550780
C	15.78491921	16.63525379	10.91147118
C	14.07323464	17.91568163	9.88128484
N	13.10017180	19.58365618	15.30147065
N	14.92959680	22.82058002	16.96681017
N	15.54436933	21.22483627	14.60352156
N	12.79725955	20.98804495	17.92552291
C	20.51829648	23.96122668	15.78369477
C	12.71778891	24.59373772	22.41459472
C	8.27678386	17.11724788	17.55555375
C	18.16524515	23.86376493	15.20047243
C	13.01287950	24.06915535	20.03193280
C	10.52527736	18.02323347	17.55526154
C	19.57029381	25.51061543	14.22926234
C	11.59759884	25.87604874	20.72266885
C	10.17155509	15.88287932	18.60258382
C	14.68069097	19.31223072	13.30903752
C	16.87554641	23.11735293	15.40632196
C	13.38498391	23.13640621	18.95398583
C	11.49532865	19.07313094	17.06244792
C	15.62759831	20.33603998	13.57841867
C	16.60912494	22.03102495	14.53521165
C	12.69139361	21.92987772	18.88936830
C	11.80625796	20.05938273	18.04006015
C	16.74983994	20.67556378	12.77766998
C	17.39273417	21.74909381	13.37726098
C	11.65237606	21.50192018	19.76194265
C	11.10677469	20.31131209	19.28852069
C	13.53158731	19.01534218	14.11151013
C	16.06324863	23.43155816	16.53023395
C	14.34018021	23.55995256	17.99964669
C	12.12566642	18.82790463	15.84566507
C	12.65164428	17.90510414	13.78349323
C	16.22780348	24.62146684	17.37052260
C	15.18424627	24.75064040	18.26572068
C	11.87577722	17.69486376	14.95195093
H	12.78342824	17.05725570	13.05214738
H	16.94236030	25.43369506	17.24168831
H	15.02972708	25.56146922	18.98312968
H	11.06572992	16.97648093	15.06986971
H	17.03081831	20.14363673	11.85548479
H	18.33053638	22.30200773	13.07773291
H	11.37547922	22.00829533	20.74639500
H	10.19526475	19.75873840	19.61277594
H	19.79658196	26.28977412	13.50880967
H	10.92536851	26.75377935	20.50489841
H	10.58148337	15.09092277	19.29435268
H	21.39586978	23.45487620	16.18024007
H	12.96318596	24.45253517	23.46185963
H	7.18789361	17.17611144	17.35247705
H	14.92281579	21.31063363	15.40445362
H	13.51951553	21.04878133	17.20535373
C	22.00205703	25.83352482	14.94687281
H	22.54989909	25.59899269	15.84400276
H	21.78956178	26.83898446	15.00014976
H	22.65561620	25.60431821	14.13184681
C	19.08732282	22.01661538	16.57406749
H	18.85183003	21.19378448	15.91390334
H	18.24753004	22.06155498	17.24051212
H	19.89550036	21.72093776	17.30616112
C	17.06690009	25.70525370	13.76984227
H	16.67526770	26.43305740	14.49773623
H	16.16314511	25.02768781	13.59722301
H	17.21688665	26.17474930	12.80144512
C	12.49092105	16.90992895	18.84670607
H	12.61199799	17.46213208	19.79488457
H	13.06743965	17.49015101	18.14993997
H	12.78305059	15.86668731	18.99423992
C	8.75072963	19.39016440	16.42568500
H	7.68610386	19.28880169	16.23972741
H	9.25465621	19.40651562	15.42102748
H	8.90622142	20.32225292	16.99925512
C	7.90467231	14.79729635	18.50315285
H	7.74375439	14.74473317	19.59497419
H	8.35368053	13.86814288	18.07479887
H	6.94602637	14.98636905	18.07552555
C	12.14580904	25.55647706	18.23163026
H	11.34578004	26.26096979	17.92607131
H	12.00377157	24.66483502	17.55966879
H	13.12209491	25.94930603	17.91569992
C	14.10048414	22.60944679	21.66728045
H	14.56892926	22.25618534	20.76331945
H	13.51300356	21.75334570	22.22819967
H	14.91933576	22.86708123	22.38419462
C	11.31271718	26.50483020	23.23902175
H	11.21364748	27.53611847	22.93264365
H	11.94936418	26.45409802	24.08958198
H	10.31428492	26.11193708	23.52730513
C	20.66980804	25.11084483	14.99150141
C	19.29754735	23.29642239	15.83782643
C	18.27028982	24.93585697	14.29551801
C	12.21867636	25.20459142	19.70377065
C	13.23091698	23.76950587	21.37613202
C	11.89190769	25.68238215	22.12016865
C	11.04601857	16.91773863	18.32404223
C	9.17279936	18.14607419	17.20913656
C	8.79582034	15.96238575	18.22474111
H	16.40034194	17.35205166	12.88427949
H	13.14429672	19.50455994	11.06425168
C	14.76956841	18.51664157	12.08503151
C	15.71749894	17.46626290	12.02242531
C	13.91668460	18.71897585	10.99806467

Ti O H C N 0
6-31G*
****

