%chk=bottom.chk
%mem=24GB
%nprocshared=12
#p b3lyp/6-31g(d) geom=connectivity

title

0 1
 Ti                 2.81187400    1.58260000    1.10335000
 Ti                 0.90594400    6.82612000    1.10336000
 Ti                 4.71781400    6.82612000    1.10336000
 Ti                 0.90594400    3.85797000    1.99114000
 Ti                 4.71781400    3.85797000    1.99114000
 Ti                 2.81187400    9.10149000    1.99114000
 O                  2.81187400   10.19857000    0.37332000
 O                  0.90594400    4.95504000    0.37332000
 O                  4.71781400    4.95504000    0.37332000
 O                  0.90594400    1.98690000    1.26110000
 O                  4.71781400    1.98690000    1.26110000
 O                  2.81187400    7.23042000    1.26110000
 O                  2.81187400    3.45367000    1.83339000
 O                  0.90594400    8.69720000    1.83340000
 O                  4.71781400    8.69720000    1.83340000
 O                  0.90594400    5.72904000    2.72118000
 O                  4.71781400    5.72904000    2.72118000
 O                  2.81187400    0.48552000    2.72118000
 Ti                 6.62374588    1.58260000    1.10335000
 Ti                21.87123776    1.58260000    1.10335000
 Ti                 8.52968588    6.82612000    1.10336000
 Ti                23.77717776    6.82612000    1.10336000
 Ti                 8.52968588    3.85797000    1.99114000
 Ti                23.77717776    3.85797000    1.99114000
 Ti                 6.62374588    9.10149000    1.99114000
 Ti                21.87123776    9.10149000    1.99114000
 Ti                10.43561588    1.58260000    1.10335000
 Ti                25.68310776    1.58260000    1.10335000
 Ti                14.24749588    1.58260000    1.10335000
 Ti                29.49498776    1.58260000    1.10335000
 Ti                18.05936588    1.58260000    1.10335000
 Ti                12.34155588    6.82612000    1.10336000
 Ti                27.58904776    6.82612000    1.10336000
 Ti                16.15343588    6.82612000    1.10336000
 Ti                19.96530588    6.82612000    1.10336000
 Ti                12.34155588    3.85797000    1.99114000
 Ti                27.58904776    3.85797000    1.99114000
 Ti                16.15343588    3.85797000    1.99114000
 Ti                19.96530588    3.85797000    1.99114000
 Ti                10.43561588    9.10149000    1.99114000
 Ti                25.68310776    9.10149000    1.99114000
 Ti                14.24749588    9.10149000    1.99114000
 Ti                29.49498776    9.10149000    1.99114000
 Ti                18.05936588    9.10149000    1.99114000
 O                  6.62374588   10.19857000    0.37332000
 O                 21.87123776   10.19857000    0.37332000
 O                  8.52968588    4.95504000    0.37332000
 O                 23.77717776    4.95504000    0.37332000
 O                  8.52968588    1.98690000    1.26110000
 O                 23.77717776    1.98690000    1.26110000
 O                  6.62374588    7.23042000    1.26110000
 O                 21.87123776    7.23042000    1.26110000
 O                  6.62374588    3.45367000    1.83339000
 O                 21.87123776    3.45367000    1.83339000
 O                  8.52968588    8.69720000    1.83340000
 O                 23.77717776    8.69720000    1.83340000
 O                  8.52968588    5.72904000    2.72118000
 O                 23.77717776    5.72904000    2.72118000
 O                  6.62374588    0.48552000    2.72118000
 O                 21.87123776    0.48552000    2.72118000
 O                 10.43561588   10.19857000    0.37332000
 O                 25.68310776   10.19857000    0.37332000
 O                 14.24749588   10.19857000    0.37332000
 O                 29.49498776   10.19857000    0.37332000
 O                 18.05936588   10.19857000    0.37332000
 O                 12.34155588    4.95504000    0.37332000
 O                 27.58904776    4.95504000    0.37332000
 O                 16.15343588    4.95504000    0.37332000
 O                 19.96530588    4.95504000    0.37332000
 O                 12.34155588    1.98690000    1.26110000
 O                 27.58904776    1.98690000    1.26110000
 O                 16.15343588    1.98690000    1.26110000
 O                 19.96530588    1.98690000    1.26110000
 O                 10.43561588    7.23042000    1.26110000
 O                 25.68310776    7.23042000    1.26110000
 O                 14.24749588    7.23042000    1.26110000
 O                 29.49498776    7.23042000    1.26110000
 O                 18.05936588    7.23042000    1.26110000
 O                 10.43561588    3.45367000    1.83339000
 O                 25.68310776    3.45367000    1.83339000
 O                 14.24749588    3.45367000    1.83339000
 O                 29.49498776    3.45367000    1.83339000
 O                 18.05936588    3.45367000    1.83339000
 O                 12.34155588    8.69720000    1.83340000
 O                 27.58904776    8.69720000    1.83340000
 O                 16.15343588    8.69720000    1.83340000
 O                 19.96530588    8.69720000    1.83340000
 O                 12.34155588    5.72904000    2.72118000
 O                 27.58904776    5.72904000    2.72118000
 O                 16.15343588    5.72904000    2.72118000
 O                 19.96530588    5.72904000    2.72118000
 O                 10.43561588    0.48552000    2.72118000
 O                 25.68310776    0.48552000    2.72118000
 O                 14.24749588    0.48552000    2.72118000
 O                 29.49498776    0.48552000    2.72118000
 O                 18.05936588    0.48552000    2.72118000
 Ti                 2.81187400   12.06964607    1.10335000
 Ti                 2.81187400   22.55669214    1.10335000
 Ti                 0.90594400   17.31316607    1.10336000
 Ti                 0.90594400   27.80021214    1.10336000
 Ti                 4.71781400   17.31316607    1.10336000
 Ti                 4.71781400   27.80021214    1.10336000
 Ti                 0.90594400   14.34501607    1.99114000
 Ti                 0.90594400   24.83206214    1.99114000
 Ti                 4.71781400   14.34501607    1.99114000
 Ti                 4.71781400   24.83206214    1.99114000
 Ti                 2.81187400   19.58853607    1.99114000
 Ti                 2.81187400   30.07558214    1.99114000
 O                  2.81187400   20.68561607    0.37332000
 O                  2.81187400   31.17266214    0.37332000
 O                  0.90594400   15.44208607    0.37332000
 O                  0.90594400   25.92913214    0.37332000
 O                  4.71781400   15.44208607    0.37332000
 O                  4.71781400   25.92913214    0.37332000
 O                  0.90594400   12.47394607    1.26110000
 O                  0.90594400   22.96099214    1.26110000
 O                  4.71781400   12.47394607    1.26110000
 O                  4.71781400   22.96099214    1.26110000
 O                  2.81187400   17.71746607    1.26110000
 O                  2.81187400   28.20451214    1.26110000
 O                  2.81187400   13.94071607    1.83339000
 O                  2.81187400   24.42776214    1.83339000
 O                  0.90594400   19.18424607    1.83340000
 O                  0.90594400   29.67129214    1.83340000
 O                  4.71781400   19.18424607    1.83340000
 O                  4.71781400   29.67129214    1.83340000
 O                  0.90594400   16.21608607    2.72118000
 O                  0.90594400   26.70313214    2.72118000
 O                  4.71781400   16.21608607    2.72118000
 O                  4.71781400   26.70313214    2.72118000
 O                  2.81187400   10.97256607    2.72118000
 O                  2.81187400   21.45961214    2.72118000
 Ti                 6.62374588   12.06964607    1.10335000
 Ti                 6.62374588   22.55669214    1.10335000
 Ti                21.87123776   12.06964607    1.10335000
 Ti                21.87123776   22.55669214    1.10335000
 Ti                 8.52968588   17.31316607    1.10336000
 Ti                 8.52968588   27.80021214    1.10336000
 Ti                23.77717776   17.31316607    1.10336000
 Ti                23.77717776   27.80021214    1.10336000
 Ti                 8.52968588   14.34501607    1.99114000
 Ti                 8.52968588   24.83206214    1.99114000
 Ti                23.77717776   14.34501607    1.99114000
 Ti                23.77717776   24.83206214    1.99114000
 Ti                 6.62374588   19.58853607    1.99114000
 Ti                 6.62374588   30.07558214    1.99114000
 Ti                21.87123776   19.58853607    1.99114000
 Ti                21.87123776   30.07558214    1.99114000
 Ti                10.43561588   12.06964607    1.10335000
 Ti                10.43561588   22.55669214    1.10335000
 Ti                25.68310776   12.06964607    1.10335000
 Ti                25.68310776   22.55669214    1.10335000
 Ti                14.24749588   12.06964607    1.10335000
 Ti                14.24749588   22.55669214    1.10335000
 Ti                29.49498776   12.06964607    1.10335000
 Ti                29.49498776   22.55669214    1.10335000
 Ti                18.05936588   12.06964607    1.10335000
 Ti                18.05936588   22.55669214    1.10335000
 Ti                12.34155588   17.31316607    1.10336000
 Ti                12.34155588   27.80021214    1.10336000
 Ti                27.58904776   17.31316607    1.10336000
 Ti                27.58904776   27.80021214    1.10336000
 Ti                16.15343588   17.31316607    1.10336000
 Ti                16.15343588   27.80021214    1.10336000
 Ti                19.96530588   17.31316607    1.10336000
 Ti                19.96530588   27.80021214    1.10336000
 Ti                12.34155588   14.34501607    1.99114000
 Ti                12.34155588   24.83206214    1.99114000
 Ti                27.58904776   14.34501607    1.99114000
 Ti                27.58904776   24.83206214    1.99114000
 Ti                16.15343588   14.34501607    1.99114000
 Ti                16.15343588   24.83206214    1.99114000
 Ti                19.96530588   14.34501607    1.99114000
 Ti                19.96530588   24.83206214    1.99114000
 Ti                10.43561588   19.58853607    1.99114000
 Ti                10.43561588   30.07558214    1.99114000
 Ti                25.68310776   19.58853607    1.99114000
 Ti                25.68310776   30.07558214    1.99114000
 Ti                14.24749588   19.58853607    1.99114000
 Ti                14.24749588   30.07558214    1.99114000
 Ti                29.49498776   19.58853607    1.99114000
 Ti                29.49498776   30.07558214    1.99114000
 Ti                18.05936588   19.58853607    1.99114000
 Ti                18.05936588   30.07558214    1.99114000
 O                  6.62374588   20.68561607    0.37332000
 O                  6.62374588   31.17266214    0.37332000
 O                 21.87123776   20.68561607    0.37332000
 O                 21.87123776   31.17266214    0.37332000
 O                  8.52968588   15.44208607    0.37332000
 O                  8.52968588   25.92913214    0.37332000
 O                 23.77717776   15.44208607    0.37332000
 O                 23.77717776   25.92913214    0.37332000
 O                  8.52968588   12.47394607    1.26110000
 O                  8.52968588   22.96099214    1.26110000
 O                 23.77717776   12.47394607    1.26110000
 O                 23.77717776   22.96099214    1.26110000
 O                  6.62374588   17.71746607    1.26110000
 O                  6.62374588   28.20451214    1.26110000
 O                 21.87123776   17.71746607    1.26110000
 O                 21.87123776   28.20451214    1.26110000
 O                  6.62374588   13.94071607    1.83339000
 O                  6.62374588   24.42776214    1.83339000
 O                 21.87123776   13.94071607    1.83339000
 O                 21.87123776   24.42776214    1.83339000
 O                  8.52968588   19.18424607    1.83340000
 O                  8.52968588   29.67129214    1.83340000
 O                 23.77717776   19.18424607    1.83340000
 O                 23.77717776   29.67129214    1.83340000
 O                  8.52968588   16.21608607    2.72118000
 O                  8.52968588   26.70313214    2.72118000
 O                 23.77717776   16.21608607    2.72118000
 O                 23.77717776   26.70313214    2.72118000
 O                  6.62374588   10.97256607    2.72118000
 O                  6.62374588   21.45961214    2.72118000
 O                 21.87123776   10.97256607    2.72118000
 O                 21.87123776   21.45961214    2.72118000
 O                 10.43561588   20.68561607    0.37332000
 O                 10.43561588   31.17266214    0.37332000
 O                 25.68310776   20.68561607    0.37332000
 O                 25.68310776   31.17266214    0.37332000
 O                 14.24749588   20.68561607    0.37332000
 O                 14.24749588   31.17266214    0.37332000
 O                 29.49498776   20.68561607    0.37332000
 O                 29.49498776   31.17266214    0.37332000
 O                 18.05936588   20.68561607    0.37332000
 O                 18.05936588   31.17266214    0.37332000
 O                 12.34155588   15.44208607    0.37332000
 O                 12.34155588   25.92913214    0.37332000
 O                 27.58904776   15.44208607    0.37332000
 O                 27.58904776   25.92913214    0.37332000
 O                 16.15343588   15.44208607    0.37332000
 O                 16.15343588   25.92913214    0.37332000
 O                 19.96530588   15.44208607    0.37332000
 O                 19.96530588   25.92913214    0.37332000
 O                 12.34155588   12.47394607    1.26110000
 O                 12.34155588   22.96099214    1.26110000
 O                 27.58904776   12.47394607    1.26110000
 O                 27.58904776   22.96099214    1.26110000
 O                 16.15343588   12.47394607    1.26110000
 O                 16.15343588   22.96099214    1.26110000
 O                 19.96530588   12.47394607    1.26110000
 O                 19.96530588   22.96099214    1.26110000
 O                 10.43561588   17.71746607    1.26110000
 O                 10.43561588   28.20451214    1.26110000
 O                 25.68310776   17.71746607    1.26110000
 O                 25.68310776   28.20451214    1.26110000
 O                 14.24749588   17.71746607    1.26110000
 O                 14.24749588   28.20451214    1.26110000
 O                 29.49498776   17.71746607    1.26110000
 O                 29.49498776   28.20451214    1.26110000
 O                 18.05936588   17.71746607    1.26110000
 O                 18.05936588   28.20451214    1.26110000
 O                 10.43561588   13.94071607    1.83339000
 O                 10.43561588   24.42776214    1.83339000
 O                 25.68310776   13.94071607    1.83339000
 O                 25.68310776   24.42776214    1.83339000
 O                 14.24749588   13.94071607    1.83339000
 O                 14.24749588   24.42776214    1.83339000
 O                 29.49498776   13.94071607    1.83339000
 O                 29.49498776   24.42776214    1.83339000
 O                 18.05936588   13.94071607    1.83339000
 O                 18.05936588   24.42776214    1.83339000
 O                 12.34155588   19.18424607    1.83340000
 O                 12.34155588   29.67129214    1.83340000
 O                 27.58904776   19.18424607    1.83340000
 O                 27.58904776   29.67129214    1.83340000
 O                 16.15343588   19.18424607    1.83340000
 O                 16.15343588   29.67129214    1.83340000
 O                 19.96530588   19.18424607    1.83340000
 O                 19.96530588   29.67129214    1.83340000
 O                 12.34155588   16.21608607    2.72118000
 O                 12.34155588   26.70313214    2.72118000
 O                 27.58904776   16.21608607    2.72118000
 O                 27.58904776   26.70313214    2.72118000
 O                 16.15343588   16.21608607    2.72118000
 O                 16.15343588   26.70313214    2.72118000
 O                 19.96530588   16.21608607    2.72118000
 O                 19.96530588   26.70313214    2.72118000
 O                 10.43561588   10.97256607    2.72118000
 O                 10.43561588   21.45961214    2.72118000
 O                 25.68310776   10.97256607    2.72118000
 O                 25.68310776   21.45961214    2.72118000
 O                 14.24749588   10.97256607    2.72118000
 O                 14.24749588   21.45961214    2.72118000
 O                 29.49498776   10.97256607    2.72118000
 O                 29.49498776   21.45961214    2.72118000
 O                 18.05936588   10.97256607    2.72118000
 O                 18.05936588   21.45961214    2.72118000

 1 10 1.0 11 1.0 13 1.0 18 1.0
 2 8 1.0 12 1.0 14 1.0 16 1.0
 3 9 1.0 12 1.0 15 1.0 17 1.0 51 1.0
 4 8 1.0 10 1.0 13 1.0 16 1.0
 5 9 1.0 11 1.0 13 1.0 17 1.0 53 1.0
 6 7 1.0 12 1.0 14 1.0 15 1.0 131 1.0
 7 97 1.0
 8
 9
 10
 11 19 1.0
 12
 13
 14
 15 25 1.0
 16
 17
 18
 19 49 1.0 53 1.0 59 1.0
 20 50 1.0 54 1.0 60 1.0 73 1.0
 21 47 1.0 51 1.0 55 1.0 57 1.0 74 1.0
 22 48 1.0 52 1.0 56 1.0 58 1.0 75 1.0
 23 47 1.0 49 1.0 53 1.0 57 1.0 79 1.0
 24 48 1.0 50 1.0 54 1.0 58 1.0 80 1.0
 25 45 1.0 51 1.0 55 1.0 213 1.0
 26 46 1.0 52 1.0 56 1.0 87 1.0 215 1.0
 27 49 1.0 70 1.0 79 1.0 92 1.0
 28 50 1.0 71 1.0 80 1.0 93 1.0
 29 70 1.0 72 1.0 81 1.0 94 1.0
 30 71 1.0 82 1.0 95 1.0
 31 72 1.0 73 1.0 83 1.0 96 1.0
 32 66 1.0 74 1.0 76 1.0 84 1.0 88 1.0
 33 67 1.0 75 1.0 77 1.0 85 1.0 89 1.0
 34 68 1.0 76 1.0 78 1.0 86 1.0 90 1.0
 35 52 1.0 69 1.0 78 1.0 87 1.0 91 1.0
 36 66 1.0 70 1.0 79 1.0 81 1.0 88 1.0
 37 67 1.0 71 1.0 80 1.0 82 1.0 89 1.0
 38 68 1.0 72 1.0 81 1.0 83 1.0 90 1.0
 39 54 1.0 69 1.0 73 1.0 83 1.0 91 1.0
 40 55 1.0 61 1.0 74 1.0 84 1.0 279 1.0
 41 56 1.0 62 1.0 75 1.0 85 1.0 281 1.0
 42 63 1.0 76 1.0 84 1.0 86 1.0 283 1.0
 43 64 1.0 77 1.0 85 1.0 285 1.0
 44 65 1.0 78 1.0 86 1.0 87 1.0 287 1.0
 45 133 1.0
 46 135 1.0
 47
 48
 49
 50
 51
 52
 53
 54
 55
 56
 57
 58
 59
 60
 61 149 1.0
 62 151 1.0
 63 153 1.0
 64 155 1.0
 65 157 1.0
 66
 67
 68
 69
 70
 71
 72
 73
 74
 75
 76
 77
 78
 79
 80
 81
 82
 83
 84
 85
 86
 87
 88
 89
 90
 91
 92
 93
 94
 95
 96
 97 115 1.0 117 1.0 121 1.0 131 1.0
 98 109 1.0 116 1.0 118 1.0 122 1.0 132 1.0
 99 111 1.0 119 1.0 123 1.0 127 1.0
 100 112 1.0 120 1.0 124 1.0 128 1.0
 101 113 1.0 119 1.0 125 1.0 129 1.0 197 1.0
 102 114 1.0 120 1.0 126 1.0 130 1.0 198 1.0
 103 111 1.0 115 1.0 121 1.0 127 1.0
 104 112 1.0 116 1.0 122 1.0 128 1.0
 105 113 1.0 117 1.0 121 1.0 129 1.0 201 1.0
 106 114 1.0 118 1.0 122 1.0 130 1.0 202 1.0
 107 109 1.0 119 1.0 123 1.0 125 1.0 132 1.0
 108 110 1.0 120 1.0 124 1.0 126 1.0
 109
 110
 111
 112
 113
 114
 115
 116
 117 133 1.0
 118 134 1.0
 119
 120
 121
 122
 123
 124
 125 145 1.0
 126 146 1.0
 127
 128
 129
 130
 131
 132
 133 193 1.0 201 1.0 213 1.0
 134 185 1.0 194 1.0 202 1.0 214 1.0
 135 195 1.0 203 1.0 215 1.0 241 1.0
 136 187 1.0 196 1.0 204 1.0 216 1.0 242 1.0
 137 189 1.0 197 1.0 205 1.0 209 1.0 243 1.0
 138 190 1.0 198 1.0 206 1.0 210 1.0 244 1.0
 139 191 1.0 199 1.0 207 1.0 211 1.0 245 1.0
 140 192 1.0 200 1.0 208 1.0 212 1.0 246 1.0
 141 189 1.0 193 1.0 201 1.0 209 1.0 253 1.0
 142 190 1.0 194 1.0 202 1.0 210 1.0 254 1.0
 143 191 1.0 195 1.0 203 1.0 211 1.0 255 1.0
 144 192 1.0 196 1.0 204 1.0 212 1.0 256 1.0
 145 185 1.0 197 1.0 205 1.0 214 1.0
 146 186 1.0 198 1.0 206 1.0
 147 187 1.0 199 1.0 207 1.0 216 1.0 269 1.0
 148 188 1.0 200 1.0 208 1.0 270 1.0
 149 193 1.0 235 1.0 253 1.0 279 1.0
 150 194 1.0 217 1.0 236 1.0 254 1.0 280 1.0
 151 195 1.0 237 1.0 255 1.0 281 1.0
 152 196 1.0 219 1.0 238 1.0 256 1.0 282 1.0
 153 235 1.0 239 1.0 257 1.0 283 1.0
 154 221 1.0 236 1.0 240 1.0 258 1.0 284 1.0
 155 237 1.0 259 1.0 285 1.0
 156 223 1.0 238 1.0 260 1.0 286 1.0
 157 239 1.0 241 1.0 261 1.0 287 1.0
 158 225 1.0 240 1.0 242 1.0 262 1.0 288 1.0
 159 227 1.0 243 1.0 247 1.0 263 1.0 271 1.0
 160 228 1.0 244 1.0 248 1.0 264 1.0 272 1.0
 161 229 1.0 245 1.0 249 1.0 265 1.0 273 1.0
 162 230 1.0 246 1.0 250 1.0 266 1.0 274 1.0
 163 231 1.0 247 1.0 251 1.0 267 1.0 275 1.0
 164 232 1.0 248 1.0 252 1.0 268 1.0 276 1.0
 165 199 1.0 233 1.0 251 1.0 269 1.0 277 1.0
 166 200 1.0 234 1.0 252 1.0 270 1.0 278 1.0
 167 227 1.0 235 1.0 253 1.0 257 1.0 271 1.0
 168 228 1.0 236 1.0 254 1.0 258 1.0 272 1.0
 169 229 1.0 237 1.0 255 1.0 259 1.0 273 1.0
 170 230 1.0 238 1.0 256 1.0 260 1.0 274 1.0
 171 231 1.0 239 1.0 257 1.0 261 1.0 275 1.0
 172 232 1.0 240 1.0 258 1.0 262 1.0 276 1.0
 173 203 1.0 233 1.0 241 1.0 261 1.0 277 1.0
 174 204 1.0 234 1.0 242 1.0 262 1.0 278 1.0
 175 205 1.0 217 1.0 243 1.0 263 1.0 280 1.0
 176 206 1.0 218 1.0 244 1.0 264 1.0
 177 207 1.0 219 1.0 245 1.0 265 1.0 282 1.0
 178 208 1.0 220 1.0 246 1.0 266 1.0
 179 221 1.0 247 1.0 263 1.0 267 1.0 284 1.0
 180 222 1.0 248 1.0 264 1.0 268 1.0
 181 223 1.0 249 1.0 265 1.0 286 1.0
 182 224 1.0 250 1.0 266 1.0
 183 225 1.0 251 1.0 267 1.0 269 1.0 288 1.0
 184 226 1.0 252 1.0 268 1.0 270 1.0
 185
 186
 187
 188
 189
 190
 191
 192
 193
 194
 195
 196
 197
 198
 199
 200
 201
 202
 203
 204
 205
 206
 207
 208
 209
 210
 211
 212
 213
 214
 215
 216
 217
 218
 219
 220
 221
 222
 223
 224
 225
 226
 227
 228
 229
 230
 231
 232
 233
 234
 235
 236
 237
 238
 239
 240
 241
 242
 243
 244
 245
 246
 247
 248
 249
 250
 251
 252
 253
 254
 255
 256
 257
 258
 259
 260
 261
 262
 263
 264
 265
 266
 267
 268
 269
 270
 271
 272
 273
 274
 275
 276
 277
 278
 279
 280
 281
 282
 283
 284
 285
 286
 287
 288

Ti O H C N 0
6-31G*
****



