%chk=joined.chk
%mem=24GB
%nproc=12
#p b3lyp/6-31G*

joined_ab.com

0 1
Ti	2.81187400	1.58260000	-2.44779000
Ti	0.90594400	6.82612000	-2.44778000
Ti	4.71781400	6.82612000	-2.44778000
Ti	0.90594400	3.85797000	-1.56000000
Ti	4.71781400	3.85797000	-1.56000000
Ti	2.81187400	9.10149000	-1.56000000
O	2.81187400	10.19857000	-3.17782000
O	0.90594400	4.95504000	-3.17782000
O	4.71781400	4.95504000	-3.17782000
O	0.90594400	1.98690000	-2.29004000
O	4.71781400	1.98690000	-2.29004000
O	2.81187400	7.23042000	-2.29004000
O	2.81187400	3.45367000	-1.71775000
O	0.90594400	8.69720000	-1.71774000
O	4.71781400	8.69720000	-1.71774000
O	0.90594400	5.72904000	-0.82996000
O	4.71781400	5.72904000	-0.82996000
O	2.81187400	0.48552000	-0.82996000
Ti	6.62374588	1.58260000	-2.44779000
Ti	21.87123776	1.58260000	-2.44779000
Ti	8.52968588	6.82612000	-2.44778000
Ti	23.77717776	6.82612000	-2.44778000
Ti	8.52968588	3.85797000	-1.56000000
Ti	23.77717776	3.85797000	-1.56000000
Ti	6.62374588	9.10149000	-1.56000000
Ti	21.87123776	9.10149000	-1.56000000
Ti	10.43561588	1.58260000	-2.44779000
Ti	25.68310776	1.58260000	-2.44779000
Ti	14.24749588	1.58260000	-2.44779000
Ti	29.49498776	1.58260000	-2.44779000
Ti	18.05936588	1.58260000	-2.44779000
Ti	12.34155588	6.82612000	-2.44778000
Ti	27.58904776	6.82612000	-2.44778000
Ti	16.15343588	6.82612000	-2.44778000
Ti	19.96530588	6.82612000	-2.44778000
Ti	12.34155588	3.85797000	-1.56000000
Ti	27.58904776	3.85797000	-1.56000000
Ti	16.15343588	3.85797000	-1.56000000
Ti	19.96530588	3.85797000	-1.56000000
Ti	10.43561588	9.10149000	-1.56000000
Ti	25.68310776	9.10149000	-1.56000000
Ti	14.24749588	9.10149000	-1.56000000
Ti	29.49498776	9.10149000	-1.56000000
Ti	18.05936588	9.10149000	-1.56000000
O	6.62374588	10.19857000	-3.17782000
O	21.87123776	10.19857000	-3.17782000
O	8.52968588	4.95504000	-3.17782000
O	23.77717776	4.95504000	-3.17782000
O	8.52968588	1.98690000	-2.29004000
O	23.77717776	1.98690000	-2.29004000
O	6.62374588	7.23042000	-2.29004000
O	21.87123776	7.23042000	-2.29004000
O	6.62374588	3.45367000	-1.71775000
O	21.87123776	3.45367000	-1.71775000
O	8.52968588	8.69720000	-1.71774000
O	23.77717776	8.69720000	-1.71774000
O	8.52968588	5.72904000	-0.82996000
O	23.77717776	5.72904000	-0.82996000
O	6.62374588	0.48552000	-0.82996000
O	21.87123776	0.48552000	-0.82996000
O	10.43561588	10.19857000	-3.17782000
O	25.68310776	10.19857000	-3.17782000
O	14.24749588	10.19857000	-3.17782000
O	29.49498776	10.19857000	-3.17782000
O	18.05936588	10.19857000	-3.17782000
O	12.34155588	4.95504000	-3.17782000
O	27.58904776	4.95504000	-3.17782000
O	16.15343588	4.95504000	-3.17782000
O	19.96530588	4.95504000	-3.17782000
O	12.34155588	1.98690000	-2.29004000
O	27.58904776	1.98690000	-2.29004000
O	16.15343588	1.98690000	-2.29004000
O	19.96530588	1.98690000	-2.29004000
O	10.43561588	7.23042000	-2.29004000
O	25.68310776	7.23042000	-2.29004000
O	14.24749588	7.23042000	-2.29004000
O	29.49498776	7.23042000	-2.29004000
O	18.05936588	7.23042000	-2.29004000
O	10.43561588	3.45367000	-1.71775000
O	25.68310776	3.45367000	-1.71775000
O	14.24749588	3.45367000	-1.71775000
O	29.49498776	3.45367000	-1.71775000
O	18.05936588	3.45367000	-1.71775000
O	12.34155588	8.69720000	-1.71774000
O	27.58904776	8.69720000	-1.71774000
O	16.15343588	8.69720000	-1.71774000
O	19.96530588	8.69720000	-1.71774000
O	12.34155588	5.72904000	-0.82996000
O	27.58904776	5.72904000	-0.82996000
O	16.15343588	5.72904000	-0.82996000
O	19.96530588	5.72904000	-0.82996000
O	10.43561588	0.48552000	-0.82996000
O	25.68310776	0.48552000	-0.82996000
O	14.24749588	0.48552000	-0.82996000
O	29.49498776	0.48552000	-0.82996000
O	18.05936588	0.48552000	-0.82996000
Ti	2.81187400	12.06964607	-2.44779000
Ti	2.81187400	22.55669214	-2.44779000
Ti	0.90594400	17.31316607	-2.44778000
Ti	0.90594400	27.80021214	-2.44778000
Ti	4.71781400	17.31316607	-2.44778000
Ti	4.71781400	27.80021214	-2.44778000
Ti	0.90594400	14.34501607	-1.56000000
Ti	0.90594400	24.83206214	-1.56000000
Ti	4.71781400	14.34501607	-1.56000000
Ti	4.71781400	24.83206214	-1.56000000
Ti	2.81187400	19.58853607	-1.56000000
Ti	2.81187400	30.07558214	-1.56000000
O	2.81187400	20.68561607	-3.17782000
O	2.81187400	31.17266214	-3.17782000
O	0.90594400	15.44208607	-3.17782000
O	0.90594400	25.92913214	-3.17782000
O	4.71781400	15.44208607	-3.17782000
O	4.71781400	25.92913214	-3.17782000
O	0.90594400	12.47394607	-2.29004000
O	0.90594400	22.96099214	-2.29004000
O	4.71781400	12.47394607	-2.29004000
O	4.71781400	22.96099214	-2.29004000
O	2.81187400	17.71746607	-2.29004000
O	2.81187400	28.20451214	-2.29004000
O	2.81187400	13.94071607	-1.71775000
O	2.81187400	24.42776214	-1.71775000
O	0.90594400	19.18424607	-1.71774000
O	0.90594400	29.67129214	-1.71774000
O	4.71781400	19.18424607	-1.71774000
O	4.71781400	29.67129214	-1.71774000
O	0.90594400	16.21608607	-0.82996000
O	0.90594400	26.70313214	-0.82996000
O	4.71781400	16.21608607	-0.82996000
O	4.71781400	26.70313214	-0.82996000
O	2.81187400	10.97256607	-0.82996000
O	2.81187400	21.45961214	-0.82996000
Ti	6.62374588	12.06964607	-2.44779000
Ti	6.62374588	22.55669214	-2.44779000
Ti	21.87123776	12.06964607	-2.44779000
Ti	21.87123776	22.55669214	-2.44779000
Ti	8.52968588	17.31316607	-2.44778000
Ti	8.52968588	27.80021214	-2.44778000
Ti	23.77717776	17.31316607	-2.44778000
Ti	23.77717776	27.80021214	-2.44778000
Ti	8.52968588	14.34501607	-1.56000000
Ti	8.52968588	24.83206214	-1.56000000
Ti	23.77717776	14.34501607	-1.56000000
Ti	23.77717776	24.83206214	-1.56000000
Ti	6.62374588	19.58853607	-1.56000000
Ti	6.62374588	30.07558214	-1.56000000
Ti	21.87123776	19.58853607	-1.56000000
Ti	21.87123776	30.07558214	-1.56000000
Ti	10.43561588	12.06964607	-2.44779000
Ti	10.43561588	22.55669214	-2.44779000
Ti	25.68310776	12.06964607	-2.44779000
Ti	25.68310776	22.55669214	-2.44779000
Ti	14.24749588	12.06964607	-2.44779000
Ti	14.24749588	22.55669214	-2.44779000
Ti	29.49498776	12.06964607	-2.44779000
Ti	29.49498776	22.55669214	-2.44779000
Ti	18.05936588	12.06964607	-2.44779000
Ti	18.05936588	22.55669214	-2.44779000
Ti	12.34155588	17.31316607	-2.44778000
Ti	12.34155588	27.80021214	-2.44778000
Ti	27.58904776	17.31316607	-2.44778000
Ti	27.58904776	27.80021214	-2.44778000
Ti	16.15343588	17.31316607	-2.44778000
Ti	16.15343588	27.80021214	-2.44778000
Ti	19.96530588	17.31316607	-2.44778000
Ti	19.96530588	27.80021214	-2.44778000
Ti	12.34155588	14.34501607	-1.56000000
Ti	12.34155588	24.83206214	-1.56000000
Ti	27.58904776	14.34501607	-1.56000000
Ti	27.58904776	24.83206214	-1.56000000
Ti	16.15343588	14.34501607	-1.56000000
Ti	16.15343588	24.83206214	-1.56000000
Ti	19.96530588	14.34501607	-1.56000000
Ti	19.96530588	24.83206214	-1.56000000
Ti	10.43561588	19.58853607	-1.56000000
Ti	10.43561588	30.07558214	-1.56000000
Ti	25.68310776	19.58853607	-1.56000000
Ti	25.68310776	30.07558214	-1.56000000
Ti	14.24749588	19.58853607	-1.56000000
Ti	14.24749588	30.07558214	-1.56000000
Ti	29.49498776	19.58853607	-1.56000000
Ti	29.49498776	30.07558214	-1.56000000
Ti	18.05936588	19.58853607	-1.56000000
Ti	18.05936588	30.07558214	-1.56000000
O	6.62374588	20.68561607	-3.17782000
O	6.62374588	31.17266214	-3.17782000
O	21.87123776	20.68561607	-3.17782000
O	21.87123776	31.17266214	-3.17782000
O	8.52968588	15.44208607	-3.17782000
O	8.52968588	25.92913214	-3.17782000
O	23.77717776	15.44208607	-3.17782000
O	23.77717776	25.92913214	-3.17782000
O	8.52968588	12.47394607	-2.29004000
O	8.52968588	22.96099214	-2.29004000
O	23.77717776	12.47394607	-2.29004000
O	23.77717776	22.96099214	-2.29004000
O	6.62374588	17.71746607	-2.29004000
O	6.62374588	28.20451214	-2.29004000
O	21.87123776	17.71746607	-2.29004000
O	21.87123776	28.20451214	-2.29004000
O	6.62374588	13.94071607	-1.71775000
O	6.62374588	24.42776214	-1.71775000
O	21.87123776	13.94071607	-1.71775000
O	21.87123776	24.42776214	-1.71775000
O	8.52968588	19.18424607	-1.71774000
O	8.52968588	29.67129214	-1.71774000
O	23.77717776	19.18424607	-1.71774000
O	23.77717776	29.67129214	-1.71774000
O	8.52968588	16.21608607	-0.82996000
O	8.52968588	26.70313214	-0.82996000
O	23.77717776	16.21608607	-0.82996000
O	23.77717776	26.70313214	-0.82996000
O	6.62374588	10.97256607	-0.82996000
O	6.62374588	21.45961214	-0.82996000
O	21.87123776	10.97256607	-0.82996000
O	21.87123776	21.45961214	-0.82996000
O	10.43561588	20.68561607	-3.17782000
O	10.43561588	31.17266214	-3.17782000
O	25.68310776	20.68561607	-3.17782000
O	25.68310776	31.17266214	-3.17782000
O	14.24749588	20.68561607	-3.17782000
O	14.24749588	31.17266214	-3.17782000
O	29.49498776	20.68561607	-3.17782000
O	29.49498776	31.17266214	-3.17782000
O	18.05936588	20.68561607	-3.17782000
O	18.05936588	31.17266214	-3.17782000
O	12.34155588	15.44208607	-3.17782000
O	12.34155588	25.92913214	-3.17782000
O	27.58904776	15.44208607	-3.17782000
O	27.58904776	25.92913214	-3.17782000
O	16.15343588	15.44208607	-3.17782000
O	16.15343588	25.92913214	-3.17782000
O	19.96530588	15.44208607	-3.17782000
O	19.96530588	25.92913214	-3.17782000
O	12.34155588	12.47394607	-2.29004000
O	12.34155588	22.96099214	-2.29004000
O	27.58904776	12.47394607	-2.29004000
O	27.58904776	22.96099214	-2.29004000
O	16.15343588	12.47394607	-2.29004000
O	16.15343588	22.96099214	-2.29004000
O	19.96530588	12.47394607	-2.29004000
O	19.96530588	22.96099214	-2.29004000
O	10.43561588	17.71746607	-2.29004000
O	10.43561588	28.20451214	-2.29004000
O	25.68310776	17.71746607	-2.29004000
O	25.68310776	28.20451214	-2.29004000
O	14.24749588	17.71746607	-2.29004000
O	14.24749588	28.20451214	-2.29004000
O	29.49498776	17.71746607	-2.29004000
O	29.49498776	28.20451214	-2.29004000
O	18.05936588	17.71746607	-2.29004000
O	18.05936588	28.20451214	-2.29004000
O	10.43561588	13.94071607	-1.71775000
O	10.43561588	24.42776214	-1.71775000
O	25.68310776	13.94071607	-1.71775000
O	25.68310776	24.42776214	-1.71775000
O	14.24749588	13.94071607	-1.71775000
O	14.24749588	24.42776214	-1.71775000
O	29.49498776	13.94071607	-1.71775000
O	29.49498776	24.42776214	-1.71775000
O	18.05936588	13.94071607	-1.71775000
O	18.05936588	24.42776214	-1.71775000
O	12.34155588	19.18424607	-1.71774000
O	12.34155588	29.67129214	-1.71774000
O	27.58904776	19.18424607	-1.71774000
O	27.58904776	29.67129214	-1.71774000
O	16.15343588	19.18424607	-1.71774000
O	16.15343588	29.67129214	-1.71774000
O	19.96530588	19.18424607	-1.71774000
O	19.96530588	29.67129214	-1.71774000
O	12.34155588	16.21608607	-0.82996000
O	12.34155588	26.70313214	-0.82996000
O	27.58904776	16.21608607	-0.82996000
O	27.58904776	26.70313214	-0.82996000
O	16.15343588	16.21608607	-0.82996000
O	16.15343588	26.70313214	-0.82996000
O	19.96530588	16.21608607	-0.82996000
O	19.96530588	26.70313214	-0.82996000
O	10.43561588	10.97256607	-0.82996000
O	10.43561588	21.45961214	-0.82996000
O	25.68310776	10.97256607	-0.82996000
O	25.68310776	21.45961214	-0.82996000
O	14.24749588	10.97256607	-0.82996000
O	14.24749588	21.45961214	-0.82996000
O	29.49498776	10.97256607	-0.82996000
O	29.49498776	21.45961214	-0.82996000
O	18.05936588	10.97256607	-0.82996000
O	18.05936588	21.45961214	-0.82996000
Ti	2.81187400	0.19704000	1.10336000
Ti	0.90594400	5.44057000	1.10336000
Ti	4.71781400	5.44057000	1.10336000
Ti	0.90594400	2.47241000	1.99114000
Ti	4.71781400	2.47241000	1.99114000
Ti	2.81187400	7.71594000	1.99115000
O	2.81187400	8.81302000	0.37332000
O	0.90594400	3.56949000	0.37332000
O	4.71781400	3.56949000	0.37332000
O	0.90594400	0.60134000	1.26110000
O	4.71781400	0.60134000	1.26110000
O	2.81187400	5.84486000	1.26111000
O	2.81187400	2.06812000	1.83340000
O	0.90594400	7.31164000	1.83340000
O	4.71781400	7.31164000	1.83340000
O	0.90594400	4.34349000	2.72118000
O	4.71781400	4.34349000	2.72118000
O	2.81187400	9.58701000	2.72118000
Ti	6.62374588	0.19704000	1.10336000
Ti	21.87123776	0.19704000	1.10336000
Ti	8.52968588	5.44057000	1.10336000
Ti	23.77717776	5.44057000	1.10336000
Ti	8.52968588	2.47241000	1.99114000
Ti	23.77717776	2.47241000	1.99114000
Ti	6.62374588	7.71594000	1.99115000
Ti	21.87123776	7.71594000	1.99115000
Ti	10.43561588	0.19704000	1.10336000
Ti	25.68310776	0.19704000	1.10336000
Ti	14.24749588	0.19704000	1.10336000
Ti	29.49498776	0.19704000	1.10336000
Ti	18.05936588	0.19704000	1.10336000
Ti	12.34155588	5.44057000	1.10336000
Ti	27.58904776	5.44057000	1.10336000
Ti	16.15343588	5.44057000	1.10336000
Ti	19.96530588	5.44057000	1.10336000
Ti	12.34155588	2.47241000	1.99114000
Ti	27.58904776	2.47241000	1.99114000
Ti	16.15343588	2.47241000	1.99114000
Ti	19.96530588	2.47241000	1.99114000
Ti	10.43561588	7.71594000	1.99115000
Ti	25.68310776	7.71594000	1.99115000
Ti	14.24749588	7.71594000	1.99115000
Ti	29.49498776	7.71594000	1.99115000
Ti	18.05936588	7.71594000	1.99115000
O	6.62374588	8.81302000	0.37332000
O	21.87123776	8.81302000	0.37332000
O	8.52968588	3.56949000	0.37332000
O	23.77717776	3.56949000	0.37332000
O	8.52968588	0.60134000	1.26110000
O	23.77717776	0.60134000	1.26110000
O	6.62374588	5.84486000	1.26111000
O	21.87123776	5.84486000	1.26111000
O	6.62374588	2.06812000	1.83340000
O	21.87123776	2.06812000	1.83340000
O	8.52968588	7.31164000	1.83340000
O	23.77717776	7.31164000	1.83340000
O	8.52968588	4.34349000	2.72118000
O	23.77717776	4.34349000	2.72118000
O	6.62374588	9.58701000	2.72118000
O	21.87123776	9.58701000	2.72118000
O	10.43561588	8.81302000	0.37332000
O	25.68310776	8.81302000	0.37332000
O	14.24749588	8.81302000	0.37332000
O	29.49498776	8.81302000	0.37332000
O	18.05936588	8.81302000	0.37332000
O	12.34155588	3.56949000	0.37332000
O	27.58904776	3.56949000	0.37332000
O	16.15343588	3.56949000	0.37332000
O	19.96530588	3.56949000	0.37332000
O	12.34155588	0.60134000	1.26110000
O	27.58904776	0.60134000	1.26110000
O	16.15343588	0.60134000	1.26110000
O	19.96530588	0.60134000	1.26110000
O	10.43561588	5.84486000	1.26111000
O	25.68310776	5.84486000	1.26111000
O	14.24749588	5.84486000	1.26111000
O	29.49498776	5.84486000	1.26111000
O	18.05936588	5.84486000	1.26111000
O	10.43561588	2.06812000	1.83340000
O	25.68310776	2.06812000	1.83340000
O	14.24749588	2.06812000	1.83340000
O	29.49498776	2.06812000	1.83340000
O	18.05936588	2.06812000	1.83340000
O	12.34155588	7.31164000	1.83340000
O	27.58904776	7.31164000	1.83340000
O	16.15343588	7.31164000	1.83340000
O	19.96530588	7.31164000	1.83340000
O	12.34155588	4.34349000	2.72118000
O	27.58904776	4.34349000	2.72118000
O	16.15343588	4.34349000	2.72118000
O	19.96530588	4.34349000	2.72118000
O	10.43561588	9.58701000	2.72118000
O	25.68310776	9.58701000	2.72118000
O	14.24749588	9.58701000	2.72118000
O	29.49498776	9.58701000	2.72118000
O	18.05936588	9.58701000	2.72118000
Ti	2.81187400	10.68408607	1.10336000
Ti	2.81187400	21.17113214	1.10336000
Ti	0.90594400	15.92761607	1.10336000
Ti	0.90594400	26.41466214	1.10336000
Ti	4.71781400	15.92761607	1.10336000
Ti	4.71781400	26.41466214	1.10336000
Ti	0.90594400	12.95945607	1.99114000
Ti	0.90594400	23.44650214	1.99114000
Ti	4.71781400	12.95945607	1.99114000
Ti	4.71781400	23.44650214	1.99114000
Ti	2.81187400	18.20298607	1.99115000
Ti	2.81187400	28.69003214	1.99115000
O	2.81187400	19.30006607	0.37332000
O	2.81187400	29.78711214	0.37332000
O	0.90594400	14.05653607	0.37332000
O	0.90594400	24.54358214	0.37332000
O	4.71781400	14.05653607	0.37332000
O	4.71781400	24.54358214	0.37332000
O	0.90594400	11.08838607	1.26110000
O	0.90594400	21.57543214	1.26110000
O	4.71781400	11.08838607	1.26110000
O	4.71781400	21.57543214	1.26110000
O	2.81187400	16.33190607	1.26111000
O	2.81187400	26.81895214	1.26111000
O	2.81187400	12.55516607	1.83340000
O	2.81187400	23.04221214	1.83340000
O	0.90594400	17.79868607	1.83340000
O	0.90594400	28.28573214	1.83340000
O	4.71781400	17.79868607	1.83340000
O	4.71781400	28.28573214	1.83340000
O	0.90594400	14.83053607	2.72118000
O	0.90594400	25.31758214	2.72118000
O	4.71781400	14.83053607	2.72118000
O	4.71781400	25.31758214	2.72118000
O	2.81187400	20.07405607	2.72118000
O	2.81187400	30.56110214	2.72118000
Ti	6.62374588	10.68408607	1.10336000
Ti	6.62374588	21.17113214	1.10336000
Ti	21.87123776	10.68408607	1.10336000
Ti	21.87123776	21.17113214	1.10336000
Ti	8.52968588	15.92761607	1.10336000
Ti	8.52968588	26.41466214	1.10336000
Ti	23.77717776	15.92761607	1.10336000
Ti	23.77717776	26.41466214	1.10336000
Ti	8.52968588	12.95945607	1.99114000
Ti	8.52968588	23.44650214	1.99114000
Ti	23.77717776	12.95945607	1.99114000
Ti	23.77717776	23.44650214	1.99114000
Ti	6.62374588	18.20298607	1.99115000
Ti	6.62374588	28.69003214	1.99115000
Ti	21.87123776	18.20298607	1.99115000
Ti	21.87123776	28.69003214	1.99115000
Ti	10.43561588	10.68408607	1.10336000
Ti	10.43561588	21.17113214	1.10336000
Ti	25.68310776	10.68408607	1.10336000
Ti	25.68310776	21.17113214	1.10336000
Ti	14.24749588	10.68408607	1.10336000
Ti	14.24749588	21.17113214	1.10336000
Ti	29.49498776	10.68408607	1.10336000
Ti	29.49498776	21.17113214	1.10336000
Ti	18.05936588	10.68408607	1.10336000
Ti	18.05936588	21.17113214	1.10336000
Ti	12.34155588	15.92761607	1.10336000
Ti	12.34155588	26.41466214	1.10336000
Ti	27.58904776	15.92761607	1.10336000
Ti	27.58904776	26.41466214	1.10336000
Ti	16.15343588	15.92761607	1.10336000
Ti	16.15343588	26.41466214	1.10336000
Ti	19.96530588	15.92761607	1.10336000
Ti	19.96530588	26.41466214	1.10336000
Ti	12.34155588	12.95945607	1.99114000
Ti	12.34155588	23.44650214	1.99114000
Ti	27.58904776	12.95945607	1.99114000
Ti	27.58904776	23.44650214	1.99114000
Ti	16.15343588	12.95945607	1.99114000
Ti	16.15343588	23.44650214	1.99114000
Ti	19.96530588	12.95945607	1.99114000
Ti	19.96530588	23.44650214	1.99114000
Ti	10.43561588	18.20298607	1.99115000
Ti	10.43561588	28.69003214	1.99115000
Ti	25.68310776	18.20298607	1.99115000
Ti	25.68310776	28.69003214	1.99115000
Ti	14.24749588	18.20298607	1.99115000
Ti	14.24749588	28.69003214	1.99115000
Ti	29.49498776	18.20298607	1.99115000
Ti	29.49498776	28.69003214	1.99115000
Ti	18.05936588	18.20298607	1.99115000
Ti	18.05936588	28.69003214	1.99115000
O	6.62374588	19.30006607	0.37332000
O	6.62374588	29.78711214	0.37332000
O	21.87123776	19.30006607	0.37332000
O	21.87123776	29.78711214	0.37332000
O	8.52968588	14.05653607	0.37332000
O	8.52968588	24.54358214	0.37332000
O	23.77717776	14.05653607	0.37332000
O	23.77717776	24.54358214	0.37332000
O	8.52968588	11.08838607	1.26110000
O	8.52968588	21.57543214	1.26110000
O	23.77717776	11.08838607	1.26110000
O	23.77717776	21.57543214	1.26110000
O	6.62374588	16.33190607	1.26111000
O	6.62374588	26.81895214	1.26111000
O	21.87123776	16.33190607	1.26111000
O	21.87123776	26.81895214	1.26111000
O	6.62374588	12.55516607	1.83340000
O	6.62374588	23.04221214	1.83340000
O	21.87123776	12.55516607	1.83340000
O	21.87123776	23.04221214	1.83340000
O	8.52968588	17.79868607	1.83340000
O	8.52968588	28.28573214	1.83340000
O	23.77717776	17.79868607	1.83340000
O	23.77717776	28.28573214	1.83340000
O	8.52968588	14.83053607	2.72118000
O	8.52968588	25.31758214	2.72118000
O	23.77717776	14.83053607	2.72118000
O	23.77717776	25.31758214	2.72118000
O	6.62374588	20.07405607	2.72118000
O	6.62374588	30.56110214	2.72118000
O	21.87123776	20.07405607	2.72118000
O	21.87123776	30.56110214	2.72118000
O	10.43561588	19.30006607	0.37332000
O	10.43561588	29.78711214	0.37332000
O	25.68310776	19.30006607	0.37332000
O	25.68310776	29.78711214	0.37332000
O	14.24749588	19.30006607	0.37332000
O	14.24749588	29.78711214	0.37332000
O	29.49498776	19.30006607	0.37332000
O	29.49498776	29.78711214	0.37332000
O	18.05936588	19.30006607	0.37332000
O	18.05936588	29.78711214	0.37332000
O	12.34155588	14.05653607	0.37332000
O	12.34155588	24.54358214	0.37332000
O	27.58904776	14.05653607	0.37332000
O	27.58904776	24.54358214	0.37332000
O	16.15343588	14.05653607	0.37332000
O	16.15343588	24.54358214	0.37332000
O	19.96530588	14.05653607	0.37332000
O	19.96530588	24.54358214	0.37332000
O	12.34155588	11.08838607	1.26110000
O	12.34155588	21.57543214	1.26110000
O	27.58904776	11.08838607	1.26110000
O	27.58904776	21.57543214	1.26110000
O	16.15343588	11.08838607	1.26110000
O	16.15343588	21.57543214	1.26110000
O	19.96530588	11.08838607	1.26110000
O	19.96530588	21.57543214	1.26110000
O	10.43561588	16.33190607	1.26111000
O	10.43561588	26.81895214	1.26111000
O	25.68310776	16.33190607	1.26111000
O	25.68310776	26.81895214	1.26111000
O	14.24749588	16.33190607	1.26111000
O	14.24749588	26.81895214	1.26111000
O	29.49498776	16.33190607	1.26111000
O	29.49498776	26.81895214	1.26111000
O	18.05936588	16.33190607	1.26111000
O	18.05936588	26.81895214	1.26111000
O	10.43561588	12.55516607	1.83340000
O	10.43561588	23.04221214	1.83340000
O	25.68310776	12.55516607	1.83340000
O	25.68310776	23.04221214	1.83340000
O	14.24749588	12.55516607	1.83340000
O	14.24749588	23.04221214	1.83340000
O	29.49498776	12.55516607	1.83340000
O	29.49498776	23.04221214	1.83340000
O	18.05936588	12.55516607	1.83340000
O	18.05936588	23.04221214	1.83340000
O	12.34155588	17.79868607	1.83340000
O	12.34155588	28.28573214	1.83340000
O	27.58904776	17.79868607	1.83340000
O	27.58904776	28.28573214	1.83340000
O	16.15343588	17.79868607	1.83340000
O	16.15343588	28.28573214	1.83340000
O	19.96530588	17.79868607	1.83340000
O	19.96530588	28.28573214	1.83340000
O	12.34155588	14.83053607	2.72118000
O	12.34155588	25.31758214	2.72118000
O	27.58904776	14.83053607	2.72118000
O	27.58904776	25.31758214	2.72118000
O	16.15343588	14.83053607	2.72118000
O	16.15343588	25.31758214	2.72118000
O	19.96530588	14.83053607	2.72118000
O	19.96530588	25.31758214	2.72118000
O	10.43561588	20.07405607	2.72118000
O	10.43561588	30.56110214	2.72118000
O	25.68310776	20.07405607	2.72118000
O	25.68310776	30.56110214	2.72118000
O	14.24749588	20.07405607	2.72118000
O	14.24749588	30.56110214	2.72118000
O	29.49498776	20.07405607	2.72118000
O	29.49498776	30.56110214	2.72118000
O	18.05936588	20.07405607	2.72118000
O	18.05936588	30.56110214	2.72118000
Ti	6.56852196	9.19655253	4.67569449
Ti	6.58978527	6.32096825	5.48682858
Ti	2.82779224	9.23921569	4.70117996
Ti	0.89155490	3.95470226	4.85900853
Ti	4.75852644	3.93391317	4.83359018
Ti	0.91167826	1.02326567	5.51480090
Ti	4.77790909	1.03834386	5.70527845
Ti	2.92008219	6.33435548	5.52023046
O	6.68835909	7.39424777	3.95160419
O	6.58861944	4.49055135	4.60501020
O	6.70346158	0.54382342	5.85468712
O	6.53902757	8.10634961	6.37197618
O	3.07307043	7.42746722	3.97708764
O	0.96038961	2.06188306	3.92668788
O	4.65224743	2.06147229	4.10425178
O	0.87944109	9.52894633	4.62064172
O	4.74034575	9.69038277	4.81858706
O	2.81428875	4.45659042	4.77288131
O	2.83021230	0.69743389	5.88250067
O	0.97374008	5.81223858	5.86203704
O	4.76661500	5.83626386	5.79958568
O	0.94580613	2.74695754	6.36334147
O	4.83936346	2.81443325	6.54021865
O	2.84150299	8.12094318	6.32487639
Ti	21.91173000	9.27417684	4.77471393
Ti	8.52175994	4.00247755	4.75652892
Ti	23.84028888	4.10356052	4.79694269
Ti	8.54167080	1.07521280	5.45410523
Ti	23.78438618	1.24029495	5.70920971
Ti	22.02258200	6.37775868	5.47911330
Ti	10.43058370	9.19719216	4.65799738
Ti	25.64890220	9.19980967	4.84940762
Ti	14.28912537	9.33506608	4.69831932
Ti	29.52971258	9.08132075	4.73194828
Ti	18.07897154	9.28542547	4.78231257
Ti	12.34688962	4.01257578	4.75385556
Ti	27.58780401	4.00580972	4.70346661
Ti	16.21455432	4.04209275	4.77332730
Ti	20.00906656	4.00747106	4.81602295
Ti	12.37677260	1.10797822	5.53095391
Ti	27.61220528	1.08649514	5.41511697
Ti	16.18153031	1.12058903	5.61226876
Ti	20.04577368	1.13287415	5.59772340
Ti	10.39222330	6.39024015	5.50438334
Ti	25.69748906	6.31538858	5.60031423
Ti	14.14197703	6.39684995	5.53839742
Ti	29.46456328	6.20334232	5.47430127
Ti	18.13999006	6.35226765	5.53568765
O	22.03571209	7.45795165	3.93268274
O	8.61404259	2.14548096	3.95929007
O	23.52213824	2.20148806	4.07609093
O	8.49094775	9.61692005	4.80028019
O	23.78433477	9.74722988	4.77409528
O	21.95290392	4.46351072	4.74295239
O	21.85744701	0.57290921	5.85015650
O	8.51838934	5.81989710	5.81639143
O	23.83028410	5.82992358	5.84644426
O	8.60323057	2.80091506	6.32714263
O	24.02807896	2.97951237	6.42629414
O	21.80695842	8.07445925	6.39470365
O	10.31976458	7.36095340	3.93506836
O	25.82389325	7.41673143	3.97468061
O	14.21740418	7.44327070	3.94263896
O	29.48130632	7.27685670	3.87420696
O	17.96579093	7.39622511	3.93176213
O	12.50510873	2.15887713	3.93907712
O	27.53830124	2.06819078	3.86454391
O	16.25321422	2.09543681	3.91715730
O	20.10068972	2.09181701	3.98670419
O	12.33355942	9.73757624	4.80627736
O	27.63639709	9.52499594	4.86193888
O	16.15928563	9.51476778	4.82161841
O	19.98975682	9.71226255	4.54022936
O	10.46917259	4.47654592	4.91809559
O	25.66864285	4.58468179	4.56234779
O	14.26325456	4.42497228	5.05169000
O	29.44943964	4.38599189	4.96144129
O	18.09733922	4.39849900	4.80549619
O	10.42956386	0.57177813	5.67534182
O	25.66580696	0.65890659	5.80692624
O	14.24728053	0.73400165	5.63783549
O	29.45427256	0.62383141	5.69773663
O	18.18755405	0.56071658	5.90725988
O	12.27280152	5.88082464	5.94535271
O	27.57462866	5.70559843	5.76726255
O	16.17898335	5.89544644	5.57064619
O	20.07162445	5.90735937	5.77515758
O	12.29782035	2.82320797	6.35455589
O	27.60835830	2.88660945	6.24548819
O	16.31328743	2.92475287	6.28855960
O	20.12183614	3.10450033	6.41061485
O	10.37502503	8.12327945	6.36767041
O	25.67575786	8.02332418	6.47279657
O	13.95972124	8.13369172	6.26247210
O	29.52660928	7.96825281	6.45417274
O	18.22780515	8.13012573	6.42450549
Ti	6.62616351	19.89307486	4.88725852
Ti	6.61981482	30.27964934	4.77573359
Ti	6.58144994	16.81363352	5.40735978
Ti	6.51463683	27.31700358	5.39395223
Ti	2.83764372	19.69845586	4.79013353
Ti	2.78428979	30.23438445	4.68794518
Ti	0.79224812	14.39621298	4.75733059
Ti	0.87451225	24.93046739	4.77745754
Ti	4.72661313	14.44943956	4.77575983
Ti	4.67819474	25.00757154	4.70869984
Ti	0.90762777	11.44594617	5.48854719
Ti	0.94362878	21.95823438	5.43994920
Ti	4.68057244	11.60221493	5.64277414
Ti	4.57071379	22.05911192	5.62974478
Ti	2.82217564	16.78639855	5.55274409
Ti	2.86808030	27.27801274	5.58698396
O	6.61389589	17.94159363	3.86225934
O	6.65408086	28.35966719	3.92102028
O	6.61223554	14.93172425	4.62297848
O	6.59749408	25.40086239	4.78971135
O	6.58543120	10.98758781	5.97118249
O	6.53356558	21.62864463	5.88918025
O	6.44320935	18.57366983	6.29718208
O	6.52113347	29.06055635	6.34182101
O	2.92283221	17.80825739	3.93634711
O	2.92237636	28.24471763	4.00732890
O	1.16017834	12.49544263	3.91949388
O	0.83603260	23.09365872	3.91111705
O	4.70485198	12.59744225	3.97787184
O	4.61777053	23.04882823	3.88282532
O	0.95227799	20.10175875	4.69533308
O	0.88569161	30.73195541	4.58239353
O	4.65149196	20.25429772	4.69872080
O	4.66068619	30.66153634	4.91362007
O	2.85247026	14.84567225	4.79987655
O	2.79494650	25.53120783	4.73063562
O	2.83288956	11.13435576	5.80936484
O	2.78946851	21.47733812	5.87160693
O	0.94553618	16.30547966	5.58109981
O	0.97505311	26.81325850	5.80376637
O	4.70142403	16.22657370	5.93192545
O	4.73959859	26.71929130	5.92016410
O	0.97252362	13.26940747	6.30626956
O	0.91369340	23.74060876	6.39336286
O	4.88620693	13.40247679	6.35660396
O	4.59833837	23.81131995	6.29008588
O	2.96314853	18.49653459	6.37413427
O	2.59756999	29.05028249	6.27307356
Ti	21.84537927	19.75688603	4.68550830
Ti	21.89320155	30.27949404	4.84891888
Ti	8.44775710	14.46516794	4.86416651
Ti	8.50231292	25.02858358	4.68725514
Ti	23.76263413	14.40554149	4.63477983
Ti	23.88121066	24.85671869	4.88212406
Ti	8.46659635	11.50843410	5.42007213
Ti	8.37897808	22.15395492	5.51001101
Ti	23.80819858	11.60139489	5.52200969
Ti	23.79834169	21.99429500	5.51085994
Ti	21.84263019	16.83712623	5.48937333
Ti	21.98311104	27.28614203	5.49818824
Ti	10.32669805	19.83766568	4.93124721
Ti	10.45078250	30.26238883	4.70140548
Ti	25.63685337	19.68537466	4.69695549
Ti	25.66322702	30.32643511	4.68281521
Ti	14.20130538	19.62503092	4.78021464
Ti	14.33846899	30.30665196	4.72473626
Ti	29.47608256	19.75237597	4.74425692
Ti	29.49537427	30.22473369	4.62919587
Ti	18.02531325	19.66788029	4.81459828
Ti	18.06681761	30.22347055	4.81223308
Ti	12.32700027	14.60346726	4.67929085
Ti	12.29261146	24.97652414	4.66991482
Ti	27.59137817	14.56361928	4.84823685
Ti	27.60180661	24.88468537	4.69257724
Ti	16.09933334	14.46381012	4.74075678
Ti	16.15601028	24.94892431	4.76677976
Ti	19.99434951	14.57208794	4.70406581
Ti	20.04960179	24.96231475	4.75708745
Ti	12.30174720	11.66423355	5.43746258
Ti	12.21560299	22.08540459	5.57339139
Ti	27.62140291	11.44364844	5.48671212
Ti	27.61211064	22.03449287	5.51116037
Ti	16.18944476	11.54775349	5.49867301
Ti	16.05808282	22.08418173	5.38440257
Ti	19.93518978	11.66782667	5.43248125
Ti	19.97686527	22.05242375	5.51588393
Ti	10.34013943	16.91925880	5.64564552
Ti	10.53528788	27.30788387	5.47299437
Ti	25.64017008	16.75253900	5.62588549
Ti	25.70816063	27.36215431	5.45245828
Ti	14.25556046	16.69113605	5.64248447
Ti	14.42005703	27.31011165	5.30830582
Ti	29.57909878	16.72728005	5.51003843
Ti	29.55388476	27.38677565	5.55870699
Ti	18.01530672	16.75253261	5.38649476
Ti	18.13228632	27.30803411	5.48779053
O	21.85045744	17.89597478	3.90561965
O	22.01690773	28.37956223	3.92142881
O	8.54651962	12.48693046	3.89761658
O	8.32068645	23.04933912	3.95244353
O	23.59676932	12.59479071	3.91257724
O	23.89923258	23.01185112	3.94720560
O	8.50511251	20.38497480	4.64854160
O	8.57973407	30.56953554	4.76775415
O	23.75785856	20.08851017	4.74678453
O	23.74078241	30.64511727	4.76135412
O	21.89069152	14.94556791	4.71661005
O	22.02471667	25.36577388	4.88470626
O	21.84134138	11.02506068	5.91049945
O	21.89610968	21.60952663	5.71843231
O	8.40757684	16.35859613	5.79822023
O	8.47182504	26.85497271	5.75481275
O	23.75449610	16.33385686	5.84980253
O	23.82296670	26.71797091	5.73253101
O	8.45455276	13.29774062	6.39524327
O	8.51145990	23.86262520	6.44363382
O	23.65951824	13.34850491	6.33761319
O	23.57499921	23.63634956	6.43779568
O	21.71031367	18.64903050	6.32853761
O	21.76768619	28.96993437	6.36809669
O	10.36623518	17.94117036	3.99448283
O	10.56238440	28.32145031	3.92201875
O	25.66914796	17.77541282	3.90351679
O	25.57890488	28.43188493	3.94851532
O	14.07811606	17.79808508	3.95466182
O	14.20151272	28.45145045	3.90024999
O	29.53682463	17.87760253	4.00095786
O	29.50550625	28.34421646	3.94681462
O	18.13615669	17.76754997	3.89202195
O	17.85102855	28.31918771	3.92623741
O	12.30157536	12.65170914	3.91571194
O	12.35054830	23.08033203	3.91568514
O	27.54722861	12.53589305	3.92080297
O	27.76026969	23.03499168	3.93224392
O	15.90999086	12.52921656	3.87522428
O	15.98160435	23.18532740	3.94138809
O	20.04815659	12.72149771	3.88151090
O	20.00810769	23.04691599	3.92599068
O	12.29522060	20.11218809	4.82186841
O	12.40339540	30.72267082	4.77004815
O	27.52700124	20.22217846	4.71268705
O	27.55799479	30.68382501	4.88528148
O	16.13475076	20.17034535	4.84228141
O	16.20219934	30.73946401	4.92423300
O	19.89984318	20.13108459	4.74580041
O	19.98827027	30.77011605	4.71752477
O	10.37265641	14.93232048	4.84154050
O	10.39688304	25.50613561	4.63855134
O	25.62550282	14.92221805	4.79267139
O	25.71175996	25.33221081	4.88864740
O	14.25081612	15.00513635	4.64616076
O	14.26206243	25.26346940	4.88723280
O	29.44844789	14.83352038	4.88281962
O	29.53986131	25.39484669	4.72379412
O	18.08685401	14.87609705	4.73715586
O	18.16558925	25.33219328	4.67280739
O	10.38217447	11.14296643	5.66806611
O	10.29996047	21.73147396	5.86427391
O	25.76656401	11.04141834	5.71558755
O	25.64208435	21.54329895	5.81161533
O	14.27750683	11.10379408	5.74564488
O	14.13482073	21.53547609	5.74431013
O	29.52533662	10.86501315	5.81671890
O	29.48744012	21.53931624	5.67784519
O	18.10687950	11.11530325	5.80569185
O	18.02574056	21.72719718	5.72034633
O	12.23535347	16.34483941	5.65957051
O	12.38539634	26.87152567	5.63922819
O	27.63933251	16.34036764	5.69160089
O	27.60403000	26.87424044	5.74612829
O	16.19274935	16.26764407	5.85552341
O	16.28877178	26.82314000	5.67381407
O	19.90422013	16.27016816	5.80785429
O	20.04964228	26.88505355	5.60294135
O	12.38127591	13.45985408	6.36609178
O	12.41010619	23.86466323	6.29989964
O	27.40595656	13.22963829	6.39557691
O	27.56007086	23.75892356	6.34575197
O	16.17613237	13.28297864	6.36387115
O	16.08966493	23.81027567	6.41334478
O	20.29681645	13.38906714	6.23279863
O	19.98749550	23.87302205	6.33489268
O	10.20371442	18.63867110	6.43249996
O	10.49401557	29.07157963	6.31471254
O	25.47513221	18.56221338	6.40770792
O	25.63624450	29.08857698	6.39059779
O	14.08147916	18.50979621	6.40444414
O	14.39006840	29.01846755	6.33249771
O	29.53874566	18.48817933	6.36749242
O	29.74390234	29.06868205	6.38001640
O	17.95588606	18.39998260	6.30829399
O	18.25304476	29.03484165	6.33226846
H	15.92258888	14.58309319	7.71529209
H	15.89250985	15.57509676	10.99967950
H	12.75138138	17.95342079	8.95752916
O	13.98252074	15.99924467	7.50325142
O	15.79971246	15.03001046	8.58483189
C	14.75920363	15.87275709	8.54519119
C	14.30973319	16.50584603	9.79414803
C	15.02009438	16.26924879	10.99511323
C	13.37976260	17.63506383	9.80545228
N	12.83432422	19.21768478	15.62238174
N	15.29976556	22.61785865	16.78362880
N	15.07820232	20.96251801	14.53738074
N	13.09344953	20.74124139	18.06899172
C	20.27818035	23.75975028	14.10877704
C	16.35340711	23.20413680	22.37463521
C	8.05395412	18.22502714	19.12293729
C	17.82254815	23.54972903	14.17613203
C	14.83382207	23.10271823	20.48168829
C	10.36940368	18.12366325	18.30908474
C	18.85512190	25.31205424	12.85669719
C	14.26755467	24.33821236	22.50607214
C	9.30932152	16.13323828	19.30068325
C	13.99459059	18.91764198	13.42839204
C	16.60290138	22.92393334	14.79430448
C	14.55563148	22.54856429	19.13216693
C	11.48609393	18.91804604	17.69567838
C	14.85411071	20.03235903	13.48509190
C	15.99818694	21.86876789	14.09858824
C	13.56740917	21.51865505	19.11397128
C	12.08771456	19.90390053	18.52241546
C	15.60231957	20.47068311	12.35757300
C	16.31124040	21.58155227	12.72599701
C	12.76173255	21.12820349	20.28672788
C	11.83935120	20.18038322	19.92479480
C	13.07057791	18.59041077	14.43857704
C	16.27052650	23.31725753	16.08987366
C	15.24845316	23.13383578	18.02742044
C	11.89242302	18.60457123	16.34665396
C	12.13888767	17.49616042	14.36732184
C	16.85149467	24.34103755	16.89021794
C	16.23279737	24.22345005	18.13886492
C	11.42931412	17.47727912	15.53462726
H	12.17132843	16.76736404	13.59085103
H	17.63267973	25.04927169	16.56424532
H	16.38919499	24.88355830	19.00166756
H	10.72440522	16.74481746	15.83114425
H	15.65962323	19.97546432	11.35660516
H	17.03892520	22.15494978	12.11794666
H	12.83819868	21.52166163	21.31418708
H	11.07330092	19.77784232	20.57101189
H	18.68668928	26.27878724	12.33094517
H	13.57628208	25.00264963	23.05246151
H	9.40112094	15.05476287	19.58520237
H	21.21430290	23.38683719	14.49681301
H	17.40050791	22.94293152	22.74625527
H	7.16679906	18.83184052	19.28943410
H	14.55632023	20.94409535	15.42944198
H	13.67319174	20.57581423	17.21189490
C	21.35475468	25.67240652	12.88796405
H	21.16701847	26.48361391	12.16232338
H	21.98397788	24.96388673	12.36058012
H	21.94283028	26.05695328	13.72824647
C	19.35894430	21.93069890	15.42019451
H	20.07435328	21.19991312	14.96330562
H	18.46481763	21.40590853	15.69663696
H	19.77866027	22.32786599	16.36857714
C	16.35119436	25.26399217	12.87299423
H	16.48965071	26.32267706	12.96153315
H	15.56153224	24.90093704	13.55581493
H	16.17977522	25.00173973	11.81133766
C	11.66795785	15.94344099	18.42391479
H	12.20200483	16.41163643	17.60073371
H	11.33181009	14.88488856	18.13601886
H	12.28627984	15.81570221	19.33032863
C	9.01810246	20.16574700	17.80823119
H	9.92482796	20.37590420	17.25453880
H	8.93734032	20.92294229	18.58566634
H	8.08037005	20.27292037	17.23414914
C	6.98100368	16.10658339	20.16960163
H	6.60259616	16.61223358	21.04973842
H	7.24627926	15.06577349	20.33981504
H	6.16884288	16.12762512	19.43442446
C	12.89589596	24.67530199	20.39516512
H	12.36060724	24.16112475	19.54209272
H	13.41545363	25.49997778	19.88841144
H	12.11566691	24.93924323	21.10232409
C	16.95421062	21.69345919	20.54415086
H	16.59088698	21.47119742	19.48644937
H	16.83517552	20.71729762	21.09733286
H	17.99726330	22.08577137	20.44682352
C	15.79497679	24.60227278	24.42635614
H	16.80193758	24.50936920	24.76420593
H	15.19176654	23.96866367	25.12256415
H	15.52518082	25.59478383	24.63943542
C	20.12094097	24.95281797	13.31296250
C	19.12584996	23.10100811	14.54410209
C	17.69539914	24.66680105	13.29781599
C	13.94479184	23.97339283	21.12663648
C	15.99000788	22.66410693	21.14021160
C	15.51864535	24.07367390	23.03897200
C	10.43336028	16.73412048	18.70222831
C	9.13663226	18.80473446	18.43025141
C	8.11594067	16.87248480	19.53106613
H	15.45865672	16.72700292	13.05565269
H	12.43537606	19.16778547	10.95279914
C	13.94177303	18.05659829	12.16424584
C	14.86308413	16.98599553	12.16653992
C	13.17589605	18.31878207	11.01439599

Ti O H C N 0
6-31G*
****

