%chk=c2h4.chk
# hf/3-21g geom=connectivity

Title Card Required

0 1
 C                 -1.18248175    0.15328467    0.00000000
 H                 -0.64931801   -0.77442025    0.00000000
 H                 -2.25248175    0.15328467    0.00000000
 C                 -0.50720745    1.32826197    0.00000000
 H                 -1.04037119    2.25596689   -0.00000000
 H                  0.56279255    1.32826197    0.00000000

 1 2 1.0 3 1.0 4 2.0
 2
 3
 4 5 1.0 6 1.0
 5
 6

