%chk=ch4.chk
# hf/3-21g geom=connectivity

Title Card Required

0 1
 C                 -2.91970804    1.11678830    0.00000000
 H                 -2.56305361    0.10797830    0.00000000
 H                 -2.56303520    1.62118649    0.87365150
 H                 -2.56303520    1.62118649   -0.87365150
 H                 -3.98970804    1.11680149    0.00000000

 1 2 1.0 3 1.0 4 1.0 5 1.0
 2
 3
 4
 5

