%chk=porphyrin.chk
%mem=24GB
%nprocshared=12
#p b3lyp/gen nosymm geom=connectivity

title

0 1
 C                  3.43916481    0.01343698    0.00000000
 C                  2.84744589   -1.24892351    0.00000000
 C                  2.78582478    1.25199107    0.00000000
 C                  3.49841058   -2.52799255    0.00000000
 N                  1.49726520   -1.49726520    0.00000000
 C                  3.49041738    2.53123881    0.00000000
 N                  1.43476105    1.43476105    0.00000000
 C                  2.52799255   -3.49841058    0.00000000
 H                  4.57159316   -2.66625598    0.00000000
 C                  1.24892351   -2.84744589    0.00000000
 C                  2.53123881    3.49041738    0.00000000
 H                  4.56671178    2.65407091    0.00000000
 C                  1.25199107    2.78582478    0.00000000
 H                  2.66625598   -4.57159316    0.00000000
 C                 -0.01343698   -3.43916481    0.00000000
 N                 -1.43476105   -1.43476105    0.00000000
 N                 -1.49726520    1.49726520    0.00000000
 H                  2.65407091    4.56671178    0.00000000
 C                  0.01343698    3.43916481    0.00000000
 C                 -1.25199107   -2.78582478    0.00000000
 C                 -2.78582478   -1.25199107    0.00000000
 C                 -1.24892351    2.84744589    0.00000000
 C                 -2.84744589    1.24892351    0.00000000
 C                 -2.53123881   -3.49041738    0.00000000
 C                 -3.49041738   -2.53123881    0.00000000
 C                 -3.43916481   -0.01343698    0.00000000
 C                 -2.52799255    3.49841058    0.00000000
 C                 -3.49841058    2.52799255    0.00000000
 H                 -2.65407091   -4.56671178    0.00000000
 H                 -4.56671178   -2.65407091    0.00000000
 H                 -2.66625598    4.57159316    0.00000000
 H                 -4.57159316    2.66625598    0.00000000
 H                 -0.77929366    0.77929366    0.00000000
 H                  0.77929366   -0.77929366    0.00000000
 H                 -4.52525578   -0.02879647    0.00000000
 H                  0.02879647    4.52525578    0.00000000
 H                  4.52525578    0.02879647    0.00000000
 H                 -0.02879647   -4.52525578    0.00000000

 1 2 1.5 3 1.5 37 1.0
 2 4 1.5 5 1.5
 3 6 1.0 7 1.5
 4 8 2.0 9 1.0
 5 10 1.5 34 1.0
 6 11 2.0 12 1.0
 7 13 1.5
 8 10 1.5 14 1.0
 9
 10 15 1.5
 11 13 1.0 18 1.0
 12
 13 19 1.5
 14
 15 20 1.5 38 1.0
 16 20 1.5 21 1.5
 17 22 1.5 23 1.5 33 1.0
 18
 19 22 1.5 36 1.0
 20 24 1.0
 21 25 1.0 26 1.5
 22 27 1.5
 23 26 1.5 28 1.5
 24 25 2.0 29 1.0
 25 30 1.0
 26 35 1.0
 27 28 2.0 31 1.0
 28 32 1.0
 29
 30
 31
 32
 33
 34
 35
 36
 37
 38

