%chk=joined.chk
%mem=24GB
%nproc=12
#p b3lyp/6-31G*

joined_bi_abs-transf00010116.com

0 1
O	1.00000400	10.19857000	-3.17782000
O	4.81187400	10.19857000	-3.17782000
O	2.90594400	4.95504000	-3.17782000
O	6.71781400	4.95504000	-3.17782000
O	2.90594400	1.98690000	-2.29004000
O	6.71781400	1.98690000	-2.29004000
O	1.00000400	7.23042000	-2.29004000
O	4.81187400	7.23042000	-2.29004000
O	1.00000400	3.45367000	-1.71775000
O	4.81187400	3.45367000	-1.71775000
O	2.90594400	8.69720000	-1.71774000
O	6.71781400	8.69720000	-1.71774000
O	2.90594400	5.72904000	-0.82996000
O	6.71781400	5.72904000	-0.82996000
O	1.00000400	0.48552000	-0.82996000
O	4.81187400	0.48552000	-0.82996000
Ti	1.00000400	1.58260000	-2.44779000
Ti	4.81187400	1.58260000	-2.44779000
Ti	2.90594400	6.82612000	-2.44778000
Ti	6.71781400	6.82612000	-2.44778000
Ti	2.90594400	3.85797000	-1.56000000
Ti	6.71781400	3.85797000	-1.56000000
Ti	1.00000400	9.10149000	-1.56000000
Ti	4.81187400	9.10149000	-1.56000000
O	8.62374588	10.19857000	-3.17782000
O	23.87123776	10.19857000	-3.17782000
O	10.52968588	4.95504000	-3.17782000
O	25.77717776	4.95504000	-3.17782000
O	10.52968588	1.98690000	-2.29004000
O	25.77717776	1.98690000	-2.29004000
O	8.62374588	7.23042000	-2.29004000
O	23.87123776	7.23042000	-2.29004000
O	8.62374588	3.45367000	-1.71775000
O	23.87123776	3.45367000	-1.71775000
O	10.52968588	8.69720000	-1.71774000
O	25.77717776	8.69720000	-1.71774000
O	10.52968588	5.72904000	-0.82996000
O	25.77717776	5.72904000	-0.82996000
O	8.62374588	0.48552000	-0.82996000
O	23.87123776	0.48552000	-0.82996000
O	12.43561588	10.19857000	-3.17782000
O	27.68310776	10.19857000	-3.17782000
O	16.24749588	10.19857000	-3.17782000
O	20.05936588	10.19857000	-3.17782000
O	14.34155588	4.95504000	-3.17782000
O	29.58904776	4.95504000	-3.17782000
O	18.15343588	4.95504000	-3.17782000
O	21.96530588	4.95504000	-3.17782000
O	14.34155588	1.98690000	-2.29004000
O	29.58904776	1.98690000	-2.29004000
O	18.15343588	1.98690000	-2.29004000
O	21.96530588	1.98690000	-2.29004000
O	12.43561588	7.23042000	-2.29004000
O	27.68310776	7.23042000	-2.29004000
O	16.24749588	7.23042000	-2.29004000
O	20.05936588	7.23042000	-2.29004000
O	12.43561588	3.45367000	-1.71775000
O	27.68310776	3.45367000	-1.71775000
O	16.24749588	3.45367000	-1.71775000
O	20.05936588	3.45367000	-1.71775000
O	14.34155588	8.69720000	-1.71774000
O	29.58904776	8.69720000	-1.71774000
O	18.15343588	8.69720000	-1.71774000
O	21.96530588	8.69720000	-1.71774000
O	14.34155588	5.72904000	-0.82996000
O	29.58904776	5.72904000	-0.82996000
O	18.15343588	5.72904000	-0.82996000
O	21.96530588	5.72904000	-0.82996000
O	12.43561588	0.48552000	-0.82996000
O	27.68310776	0.48552000	-0.82996000
O	16.24749588	0.48552000	-0.82996000
O	20.05936588	0.48552000	-0.82996000
Ti	8.62374588	1.58260000	-2.44779000
Ti	23.87123776	1.58260000	-2.44779000
Ti	10.52968588	6.82612000	-2.44778000
Ti	25.77717776	6.82612000	-2.44778000
Ti	10.52968588	3.85797000	-1.56000000
Ti	25.77717776	3.85797000	-1.56000000
Ti	8.62374588	9.10149000	-1.56000000
Ti	23.87123776	9.10149000	-1.56000000
Ti	12.43561588	1.58260000	-2.44779000
Ti	27.68310776	1.58260000	-2.44779000
Ti	16.24749588	1.58260000	-2.44779000
Ti	20.05936588	1.58260000	-2.44779000
Ti	14.34155588	6.82612000	-2.44778000
Ti	29.58904776	6.82612000	-2.44778000
Ti	18.15343588	6.82612000	-2.44778000
Ti	21.96530588	6.82612000	-2.44778000
Ti	14.34155588	3.85797000	-1.56000000
Ti	29.58904776	3.85797000	-1.56000000
Ti	18.15343588	3.85797000	-1.56000000
Ti	21.96530588	3.85797000	-1.56000000
Ti	12.43561588	9.10149000	-1.56000000
Ti	27.68310776	9.10149000	-1.56000000
Ti	16.24749588	9.10149000	-1.56000000
Ti	20.05936588	9.10149000	-1.56000000
O	1.00000400	20.68561607	-3.17782000
O	1.00000400	31.17266214	-3.17782000
O	4.81187400	20.68561607	-3.17782000
O	4.81187400	31.17266214	-3.17782000
O	2.90594400	15.44208607	-3.17782000
O	2.90594400	25.92913214	-3.17782000
O	6.71781400	15.44208607	-3.17782000
O	6.71781400	25.92913214	-3.17782000
O	2.90594400	12.47394607	-2.29004000
O	2.90594400	22.96099214	-2.29004000
O	6.71781400	12.47394607	-2.29004000
O	6.71781400	22.96099214	-2.29004000
O	1.00000400	17.71746607	-2.29004000
O	1.00000400	28.20451214	-2.29004000
O	4.81187400	17.71746607	-2.29004000
O	4.81187400	28.20451214	-2.29004000
O	1.00000400	13.94071607	-1.71775000
O	1.00000400	24.42776214	-1.71775000
O	4.81187400	13.94071607	-1.71775000
O	4.81187400	24.42776214	-1.71775000
O	2.90594400	19.18424607	-1.71774000
O	2.90594400	29.67129214	-1.71774000
O	6.71781400	19.18424607	-1.71774000
O	6.71781400	29.67129214	-1.71774000
O	2.90594400	16.21608607	-0.82996000
O	2.90594400	26.70313214	-0.82996000
O	6.71781400	16.21608607	-0.82996000
O	6.71781400	26.70313214	-0.82996000
O	1.00000400	10.97256607	-0.82996000
O	1.00000400	21.45961214	-0.82996000
O	4.81187400	10.97256607	-0.82996000
O	4.81187400	21.45961214	-0.82996000
Ti	1.00000400	12.06964607	-2.44779000
Ti	1.00000400	22.55669214	-2.44779000
Ti	4.81187400	12.06964607	-2.44779000
Ti	4.81187400	22.55669214	-2.44779000
Ti	2.90594400	17.31316607	-2.44778000
Ti	2.90594400	27.80021214	-2.44778000
Ti	6.71781400	17.31316607	-2.44778000
Ti	6.71781400	27.80021214	-2.44778000
Ti	2.90594400	14.34501607	-1.56000000
Ti	2.90594400	24.83206214	-1.56000000
Ti	6.71781400	14.34501607	-1.56000000
Ti	6.71781400	24.83206214	-1.56000000
Ti	1.00000400	19.58853607	-1.56000000
Ti	1.00000400	30.07558214	-1.56000000
Ti	4.81187400	19.58853607	-1.56000000
Ti	4.81187400	30.07558214	-1.56000000
O	8.62374588	20.68561607	-3.17782000
O	8.62374588	31.17266214	-3.17782000
O	23.87123776	20.68561607	-3.17782000
O	23.87123776	31.17266214	-3.17782000
O	10.52968588	15.44208607	-3.17782000
O	10.52968588	25.92913214	-3.17782000
O	25.77717776	15.44208607	-3.17782000
O	25.77717776	25.92913214	-3.17782000
O	10.52968588	12.47394607	-2.29004000
O	10.52968588	22.96099214	-2.29004000
O	25.77717776	12.47394607	-2.29004000
O	25.77717776	22.96099214	-2.29004000
O	8.62374588	17.71746607	-2.29004000
O	8.62374588	28.20451214	-2.29004000
O	23.87123776	17.71746607	-2.29004000
O	23.87123776	28.20451214	-2.29004000
O	8.62374588	13.94071607	-1.71775000
O	8.62374588	24.42776214	-1.71775000
O	23.87123776	13.94071607	-1.71775000
O	23.87123776	24.42776214	-1.71775000
O	10.52968588	19.18424607	-1.71774000
O	10.52968588	29.67129214	-1.71774000
O	25.77717776	19.18424607	-1.71774000
O	25.77717776	29.67129214	-1.71774000
O	10.52968588	16.21608607	-0.82996000
O	10.52968588	26.70313214	-0.82996000
O	25.77717776	16.21608607	-0.82996000
O	25.77717776	26.70313214	-0.82996000
O	8.62374588	10.97256607	-0.82996000
O	8.62374588	21.45961214	-0.82996000
O	23.87123776	10.97256607	-0.82996000
O	23.87123776	21.45961214	-0.82996000
O	12.43561588	20.68561607	-3.17782000
O	12.43561588	31.17266214	-3.17782000
O	27.68310776	20.68561607	-3.17782000
O	27.68310776	31.17266214	-3.17782000
O	16.24749588	20.68561607	-3.17782000
O	16.24749588	31.17266214	-3.17782000
O	20.05936588	20.68561607	-3.17782000
O	20.05936588	31.17266214	-3.17782000
O	14.34155588	15.44208607	-3.17782000
O	14.34155588	25.92913214	-3.17782000
O	29.58904776	15.44208607	-3.17782000
O	29.58904776	25.92913214	-3.17782000
O	18.15343588	15.44208607	-3.17782000
O	18.15343588	25.92913214	-3.17782000
O	21.96530588	15.44208607	-3.17782000
O	21.96530588	25.92913214	-3.17782000
O	14.34155588	12.47394607	-2.29004000
O	14.34155588	22.96099214	-2.29004000
O	29.58904776	12.47394607	-2.29004000
O	29.58904776	22.96099214	-2.29004000
O	18.15343588	12.47394607	-2.29004000
O	18.15343588	22.96099214	-2.29004000
O	21.96530588	12.47394607	-2.29004000
O	21.96530588	22.96099214	-2.29004000
O	12.43561588	17.71746607	-2.29004000
O	12.43561588	28.20451214	-2.29004000
O	27.68310776	17.71746607	-2.29004000
O	27.68310776	28.20451214	-2.29004000
O	16.24749588	17.71746607	-2.29004000
O	16.24749588	28.20451214	-2.29004000
O	20.05936588	17.71746607	-2.29004000
O	20.05936588	28.20451214	-2.29004000
O	12.43561588	13.94071607	-1.71775000
O	12.43561588	24.42776214	-1.71775000
O	27.68310776	13.94071607	-1.71775000
O	27.68310776	24.42776214	-1.71775000
O	16.24749588	13.94071607	-1.71775000
O	16.24749588	24.42776214	-1.71775000
O	20.05936588	13.94071607	-1.71775000
O	20.05936588	24.42776214	-1.71775000
O	14.34155588	19.18424607	-1.71774000
O	14.34155588	29.67129214	-1.71774000
O	29.58904776	19.18424607	-1.71774000
O	29.58904776	29.67129214	-1.71774000
O	18.15343588	19.18424607	-1.71774000
O	18.15343588	29.67129214	-1.71774000
O	21.96530588	19.18424607	-1.71774000
O	21.96530588	29.67129214	-1.71774000
O	14.34155588	16.21608607	-0.82996000
O	14.34155588	26.70313214	-0.82996000
O	29.58904776	16.21608607	-0.82996000
O	29.58904776	26.70313214	-0.82996000
O	18.15343588	16.21608607	-0.82996000
O	18.15343588	26.70313214	-0.82996000
O	21.96530588	16.21608607	-0.82996000
O	21.96530588	26.70313214	-0.82996000
O	12.43561588	10.97256607	-0.82996000
O	12.43561588	21.45961214	-0.82996000
O	27.68310776	10.97256607	-0.82996000
O	27.68310776	21.45961214	-0.82996000
O	16.24749588	10.97256607	-0.82996000
O	16.24749588	21.45961214	-0.82996000
O	20.05936588	10.97256607	-0.82996000
O	20.05936588	21.45961214	-0.82996000
Ti	8.62374588	12.06964607	-2.44779000
Ti	8.62374588	22.55669214	-2.44779000
Ti	23.87123776	12.06964607	-2.44779000
Ti	23.87123776	22.55669214	-2.44779000
Ti	10.52968588	17.31316607	-2.44778000
Ti	10.52968588	27.80021214	-2.44778000
Ti	25.77717776	17.31316607	-2.44778000
Ti	25.77717776	27.80021214	-2.44778000
Ti	10.52968588	14.34501607	-1.56000000
Ti	10.52968588	24.83206214	-1.56000000
Ti	25.77717776	14.34501607	-1.56000000
Ti	25.77717776	24.83206214	-1.56000000
Ti	8.62374588	19.58853607	-1.56000000
Ti	8.62374588	30.07558214	-1.56000000
Ti	23.87123776	19.58853607	-1.56000000
Ti	23.87123776	30.07558214	-1.56000000
Ti	12.43561588	12.06964607	-2.44779000
Ti	12.43561588	22.55669214	-2.44779000
Ti	27.68310776	12.06964607	-2.44779000
Ti	27.68310776	22.55669214	-2.44779000
Ti	16.24749588	12.06964607	-2.44779000
Ti	16.24749588	22.55669214	-2.44779000
Ti	20.05936588	12.06964607	-2.44779000
Ti	20.05936588	22.55669214	-2.44779000
Ti	14.34155588	17.31316607	-2.44778000
Ti	14.34155588	27.80021214	-2.44778000
Ti	29.58904776	17.31316607	-2.44778000
Ti	29.58904776	27.80021214	-2.44778000
Ti	18.15343588	17.31316607	-2.44778000
Ti	18.15343588	27.80021214	-2.44778000
Ti	21.96530588	17.31316607	-2.44778000
Ti	21.96530588	27.80021214	-2.44778000
Ti	14.34155588	14.34501607	-1.56000000
Ti	14.34155588	24.83206214	-1.56000000
Ti	29.58904776	14.34501607	-1.56000000
Ti	29.58904776	24.83206214	-1.56000000
Ti	18.15343588	14.34501607	-1.56000000
Ti	18.15343588	24.83206214	-1.56000000
Ti	21.96530588	14.34501607	-1.56000000
Ti	21.96530588	24.83206214	-1.56000000
Ti	12.43561588	19.58853607	-1.56000000
Ti	12.43561588	30.07558214	-1.56000000
Ti	27.68310776	19.58853607	-1.56000000
Ti	27.68310776	30.07558214	-1.56000000
Ti	16.24749588	19.58853607	-1.56000000
Ti	16.24749588	30.07558214	-1.56000000
Ti	20.05936588	19.58853607	-1.56000000
Ti	20.05936588	30.07558214	-1.56000000
O	1.00000400	8.81302000	0.37332000
O	4.81187400	8.81302000	0.37332000
O	2.90594400	3.56949000	0.37332000
O	6.71781400	3.56949000	0.37332000
O	2.90594400	0.60134000	1.26110000
O	6.71781400	0.60134000	1.26110000
O	1.00000400	5.84486000	1.26111000
O	4.81187400	5.84486000	1.26111000
O	1.00000400	2.06812000	1.83340000
O	4.81187400	2.06812000	1.83340000
O	2.90594400	7.31164000	1.83340000
O	6.71781400	7.31164000	1.83340000
O	2.90594400	4.34349000	2.72118000
O	6.71781400	4.34349000	2.72118000
O	1.00000400	9.58701000	2.72118000
O	4.81187400	9.58701000	2.72118000
Ti	1.00000400	0.19704000	1.10336000
Ti	4.81187400	0.19704000	1.10336000
Ti	2.90594400	5.44057000	1.10336000
Ti	6.71781400	5.44057000	1.10336000
Ti	2.90594400	2.47241000	1.99114000
Ti	6.71781400	2.47241000	1.99114000
Ti	1.00000400	7.71594000	1.99115000
Ti	4.81187400	7.71594000	1.99115000
O	8.62374588	8.81302000	0.37332000
O	23.87123776	8.81302000	0.37332000
O	10.52968588	3.56949000	0.37332000
O	25.77717776	3.56949000	0.37332000
O	10.52968588	0.60134000	1.26110000
O	25.77717776	0.60134000	1.26110000
O	8.62374588	5.84486000	1.26111000
O	23.87123776	5.84486000	1.26111000
O	8.62374588	2.06812000	1.83340000
O	23.87123776	2.06812000	1.83340000
O	10.52968588	7.31164000	1.83340000
O	25.77717776	7.31164000	1.83340000
O	10.52968588	4.34349000	2.72118000
O	25.77717776	4.34349000	2.72118000
O	8.62374588	9.58701000	2.72118000
O	23.87123776	9.58701000	2.72118000
O	12.43561588	8.81302000	0.37332000
O	27.68310776	8.81302000	0.37332000
O	16.24749588	8.81302000	0.37332000
O	20.05936588	8.81302000	0.37332000
O	14.34155588	3.56949000	0.37332000
O	29.58904776	3.56949000	0.37332000
O	18.15343588	3.56949000	0.37332000
O	21.96530588	3.56949000	0.37332000
O	14.34155588	0.60134000	1.26110000
O	29.58904776	0.60134000	1.26110000
O	18.15343588	0.60134000	1.26110000
O	21.96530588	0.60134000	1.26110000
O	12.43561588	5.84486000	1.26111000
O	27.68310776	5.84486000	1.26111000
O	16.24749588	5.84486000	1.26111000
O	20.05936588	5.84486000	1.26111000
O	12.43561588	2.06812000	1.83340000
O	27.68310776	2.06812000	1.83340000
O	16.24749588	2.06812000	1.83340000
O	20.05936588	2.06812000	1.83340000
O	14.34155588	7.31164000	1.83340000
O	29.58904776	7.31164000	1.83340000
O	18.15343588	7.31164000	1.83340000
O	21.96530588	7.31164000	1.83340000
O	14.34155588	4.34349000	2.72118000
O	29.58904776	4.34349000	2.72118000
O	18.15343588	4.34349000	2.72118000
O	21.96530588	4.34349000	2.72118000
O	12.43561588	9.58701000	2.72118000
O	27.68310776	9.58701000	2.72118000
O	16.24749588	9.58701000	2.72118000
O	20.05936588	9.58701000	2.72118000
Ti	8.62374588	0.19704000	1.10336000
Ti	23.87123776	0.19704000	1.10336000
Ti	10.52968588	5.44057000	1.10336000
Ti	25.77717776	5.44057000	1.10336000
Ti	10.52968588	2.47241000	1.99114000
Ti	25.77717776	2.47241000	1.99114000
Ti	8.62374588	7.71594000	1.99115000
Ti	23.87123776	7.71594000	1.99115000
Ti	12.43561588	0.19704000	1.10336000
Ti	27.68310776	0.19704000	1.10336000
Ti	16.24749588	0.19704000	1.10336000
Ti	20.05936588	0.19704000	1.10336000
Ti	14.34155588	5.44057000	1.10336000
Ti	29.58904776	5.44057000	1.10336000
Ti	18.15343588	5.44057000	1.10336000
Ti	21.96530588	5.44057000	1.10336000
Ti	14.34155588	2.47241000	1.99114000
Ti	29.58904776	2.47241000	1.99114000
Ti	18.15343588	2.47241000	1.99114000
Ti	21.96530588	2.47241000	1.99114000
Ti	12.43561588	7.71594000	1.99115000
Ti	27.68310776	7.71594000	1.99115000
Ti	16.24749588	7.71594000	1.99115000
Ti	20.05936588	7.71594000	1.99115000
O	1.00000400	19.30006607	0.37332000
O	1.00000400	29.78711214	0.37332000
O	4.81187400	19.30006607	0.37332000
O	4.81187400	29.78711214	0.37332000
O	2.90594400	14.05653607	0.37332000
O	2.90594400	24.54358214	0.37332000
O	6.71781400	14.05653607	0.37332000
O	6.71781400	24.54358214	0.37332000
O	2.90594400	11.08838607	1.26110000
O	2.90594400	21.57543214	1.26110000
O	6.71781400	11.08838607	1.26110000
O	6.71781400	21.57543214	1.26110000
O	1.00000400	16.33190607	1.26111000
O	1.00000400	26.81895214	1.26111000
O	4.81187400	16.33190607	1.26111000
O	4.81187400	26.81895214	1.26111000
O	1.00000400	12.55516607	1.83340000
O	1.00000400	23.04221214	1.83340000
O	4.81187400	12.55516607	1.83340000
O	4.81187400	23.04221214	1.83340000
O	2.90594400	17.79868607	1.83340000
O	2.90594400	28.28573214	1.83340000
O	6.71781400	17.79868607	1.83340000
O	6.71781400	28.28573214	1.83340000
O	2.90594400	14.83053607	2.72118000
O	2.90594400	25.31758214	2.72118000
O	6.71781400	14.83053607	2.72118000
O	6.71781400	25.31758214	2.72118000
O	1.00000400	20.07405607	2.72118000
O	1.00000400	30.56110214	2.72118000
O	4.81187400	20.07405607	2.72118000
O	4.81187400	30.56110214	2.72118000
Ti	1.00000400	10.68408607	1.10336000
Ti	1.00000400	21.17113214	1.10336000
Ti	4.81187400	10.68408607	1.10336000
Ti	4.81187400	21.17113214	1.10336000
Ti	2.90594400	15.92761607	1.10336000
Ti	2.90594400	26.41466214	1.10336000
Ti	6.71781400	15.92761607	1.10336000
Ti	6.71781400	26.41466214	1.10336000
Ti	2.90594400	12.95945607	1.99114000
Ti	2.90594400	23.44650214	1.99114000
Ti	6.71781400	12.95945607	1.99114000
Ti	6.71781400	23.44650214	1.99114000
Ti	1.00000400	18.20298607	1.99115000
Ti	1.00000400	28.69003214	1.99115000
Ti	4.81187400	18.20298607	1.99115000
Ti	4.81187400	28.69003214	1.99115000
O	8.62374588	19.30006607	0.37332000
O	8.62374588	29.78711214	0.37332000
O	23.87123776	19.30006607	0.37332000
O	23.87123776	29.78711214	0.37332000
O	10.52968588	14.05653607	0.37332000
O	10.52968588	24.54358214	0.37332000
O	25.77717776	14.05653607	0.37332000
O	25.77717776	24.54358214	0.37332000
O	10.52968588	11.08838607	1.26110000
O	10.52968588	21.57543214	1.26110000
O	25.77717776	11.08838607	1.26110000
O	25.77717776	21.57543214	1.26110000
O	8.62374588	16.33190607	1.26111000
O	8.62374588	26.81895214	1.26111000
O	23.87123776	16.33190607	1.26111000
O	23.87123776	26.81895214	1.26111000
O	8.62374588	12.55516607	1.83340000
O	8.62374588	23.04221214	1.83340000
O	23.87123776	12.55516607	1.83340000
O	23.87123776	23.04221214	1.83340000
O	10.52968588	17.79868607	1.83340000
O	10.52968588	28.28573214	1.83340000
O	25.77717776	17.79868607	1.83340000
O	25.77717776	28.28573214	1.83340000
O	10.52968588	14.83053607	2.72118000
O	10.52968588	25.31758214	2.72118000
O	25.77717776	14.83053607	2.72118000
O	25.77717776	25.31758214	2.72118000
O	8.62374588	20.07405607	2.72118000
O	8.62374588	30.56110214	2.72118000
O	23.87123776	20.07405607	2.72118000
O	23.87123776	30.56110214	2.72118000
O	12.43561588	19.30006607	0.37332000
O	12.43561588	29.78711214	0.37332000
O	27.68310776	19.30006607	0.37332000
O	27.68310776	29.78711214	0.37332000
O	16.24749588	19.30006607	0.37332000
O	16.24749588	29.78711214	0.37332000
O	20.05936588	19.30006607	0.37332000
O	20.05936588	29.78711214	0.37332000
O	14.34155588	14.05653607	0.37332000
O	14.34155588	24.54358214	0.37332000
O	29.58904776	14.05653607	0.37332000
O	29.58904776	24.54358214	0.37332000
O	18.15343588	14.05653607	0.37332000
O	18.15343588	24.54358214	0.37332000
O	21.96530588	14.05653607	0.37332000
O	21.96530588	24.54358214	0.37332000
O	14.34155588	11.08838607	1.26110000
O	14.34155588	21.57543214	1.26110000
O	29.58904776	11.08838607	1.26110000
O	29.58904776	21.57543214	1.26110000
O	18.15343588	11.08838607	1.26110000
O	18.15343588	21.57543214	1.26110000
O	21.96530588	11.08838607	1.26110000
O	21.96530588	21.57543214	1.26110000
O	12.43561588	16.33190607	1.26111000
O	12.43561588	26.81895214	1.26111000
O	27.68310776	16.33190607	1.26111000
O	27.68310776	26.81895214	1.26111000
O	16.24749588	16.33190607	1.26111000
O	16.24749588	26.81895214	1.26111000
O	20.05936588	16.33190607	1.26111000
O	20.05936588	26.81895214	1.26111000
O	12.43561588	12.55516607	1.83340000
O	12.43561588	23.04221214	1.83340000
O	27.68310776	12.55516607	1.83340000
O	27.68310776	23.04221214	1.83340000
O	16.24749588	12.55516607	1.83340000
O	16.24749588	23.04221214	1.83340000
O	20.05936588	12.55516607	1.83340000
O	20.05936588	23.04221214	1.83340000
O	14.34155588	17.79868607	1.83340000
O	14.34155588	28.28573214	1.83340000
O	29.58904776	17.79868607	1.83340000
O	29.58904776	28.28573214	1.83340000
O	18.15343588	17.79868607	1.83340000
O	18.15343588	28.28573214	1.83340000
O	21.96530588	17.79868607	1.83340000
O	21.96530588	28.28573214	1.83340000
O	14.34155588	14.83053607	2.72118000
O	14.34155588	25.31758214	2.72118000
O	29.58904776	14.83053607	2.72118000
O	29.58904776	25.31758214	2.72118000
O	18.15343588	14.83053607	2.72118000
O	18.15343588	25.31758214	2.72118000
O	21.96530588	14.83053607	2.72118000
O	21.96530588	25.31758214	2.72118000
O	12.43561588	20.07405607	2.72118000
O	12.43561588	30.56110214	2.72118000
O	27.68310776	20.07405607	2.72118000
O	27.68310776	30.56110214	2.72118000
O	16.24749588	20.07405607	2.72118000
O	16.24749588	30.56110214	2.72118000
O	20.05936588	20.07405607	2.72118000
O	20.05936588	30.56110214	2.72118000
Ti	8.62374588	10.68408607	1.10336000
Ti	8.62374588	21.17113214	1.10336000
Ti	23.87123776	10.68408607	1.10336000
Ti	23.87123776	21.17113214	1.10336000
Ti	10.52968588	15.92761607	1.10336000
Ti	10.52968588	26.41466214	1.10336000
Ti	25.77717776	15.92761607	1.10336000
Ti	25.77717776	26.41466214	1.10336000
Ti	10.52968588	12.95945607	1.99114000
Ti	10.52968588	23.44650214	1.99114000
Ti	25.77717776	12.95945607	1.99114000
Ti	25.77717776	23.44650214	1.99114000
Ti	8.62374588	18.20298607	1.99115000
Ti	8.62374588	28.69003214	1.99115000
Ti	23.87123776	18.20298607	1.99115000
Ti	23.87123776	28.69003214	1.99115000
Ti	12.43561588	10.68408607	1.10336000
Ti	12.43561588	21.17113214	1.10336000
Ti	27.68310776	10.68408607	1.10336000
Ti	27.68310776	21.17113214	1.10336000
Ti	16.24749588	10.68408607	1.10336000
Ti	16.24749588	21.17113214	1.10336000
Ti	20.05936588	10.68408607	1.10336000
Ti	20.05936588	21.17113214	1.10336000
Ti	14.34155588	15.92761607	1.10336000
Ti	14.34155588	26.41466214	1.10336000
Ti	29.58904776	15.92761607	1.10336000
Ti	29.58904776	26.41466214	1.10336000
Ti	18.15343588	15.92761607	1.10336000
Ti	18.15343588	26.41466214	1.10336000
Ti	21.96530588	15.92761607	1.10336000
Ti	21.96530588	26.41466214	1.10336000
Ti	14.34155588	12.95945607	1.99114000
Ti	14.34155588	23.44650214	1.99114000
Ti	29.58904776	12.95945607	1.99114000
Ti	29.58904776	23.44650214	1.99114000
Ti	18.15343588	12.95945607	1.99114000
Ti	18.15343588	23.44650214	1.99114000
Ti	21.96530588	12.95945607	1.99114000
Ti	21.96530588	23.44650214	1.99114000
Ti	12.43561588	18.20298607	1.99115000
Ti	12.43561588	28.69003214	1.99115000
Ti	27.68310776	18.20298607	1.99115000
Ti	27.68310776	28.69003214	1.99115000
Ti	16.24749588	18.20298607	1.99115000
Ti	16.24749588	28.69003214	1.99115000
Ti	20.05936588	18.20298607	1.99115000
Ti	20.05936588	28.69003214	1.99115000
O	8.66822991	7.33344833	3.94540458
O	8.63179885	4.46858574	4.62924694
O	8.61179023	0.64185738	5.84976398
O	8.40622968	8.00478477	6.33563935
O	0.94449247	7.34737668	3.97285252
O	5.04633329	7.39913295	3.92588786
O	3.13670258	2.15209196	3.94359047
O	6.53037561	2.16486644	3.98684168
O	2.82827822	9.59556418	4.81280816
O	6.66166191	9.70675119	4.80080688
O	0.92990575	4.35384249	4.75886968
O	4.79563550	4.49361862	4.61003606
O	1.03298145	0.64892810	5.66689055
O	4.80470136	0.59489639	5.92544630
O	2.93474112	5.88971500	5.76334102
O	6.74066576	5.74360311	5.92473331
O	2.83611186	2.83731570	6.34881834
O	6.72311531	2.96193457	6.36464485
O	0.83191668	8.06190452	6.41996469
O	4.59298968	8.26099350	6.30576437
Ti	0.94815147	9.16012262	4.83757920
Ti	4.73292887	9.30081906	4.67419523
Ti	2.91486550	4.03259216	4.74857574
Ti	6.69048940	3.99988204	4.79871894
Ti	2.93615049	1.07356069	5.41174207
Ti	6.69411276	1.09854146	5.53901308
Ti	0.99541758	6.33259240	5.57571418
Ti	4.79567814	6.40714548	5.59243530
O	24.13201448	7.33375879	3.84852136
O	10.77547363	2.24756595	3.89341126
O	25.86012039	2.00184034	3.91571098
O	10.43292807	9.66367001	4.84759511
O	25.78085497	9.65798124	4.80276489
O	24.14151306	4.46488543	5.11335052
O	23.89542507	0.52915374	5.82921639
O	10.53338869	5.87969072	5.95187564
O	25.89763347	6.14971833	6.30704435
O	10.60684021	2.91105927	6.35047923
O	25.90963148	2.74178618	6.41270734
O	23.68888267	8.12239100	6.20408875
O	12.39714727	7.40088085	3.97299015
O	27.64003905	7.35025234	4.03463007
O	16.31639717	7.28576966	3.90363541
O	20.19816115	7.39418479	3.92934667
O	14.38821679	2.18190668	3.89151051
O	29.56245242	2.11633802	3.84114009
O	18.24465513	2.10434546	3.86216437
O	22.33627863	2.06010947	3.92893035
O	14.44273990	9.83726287	4.77940825
O	29.59405188	9.63027982	4.83789644
O	18.05455898	9.63872926	5.06229892
O	21.89184332	9.67546593	4.63562683
O	12.40824492	4.60145004	4.83247263
O	27.66415579	4.52092289	4.79627101
O	16.18208692	4.39777472	4.80239892
O	20.11652211	4.47666537	4.80819992
O	12.34338391	0.80697505	5.79210813
O	27.74191813	0.49898060	5.66843410
O	16.33224734	0.63779512	5.65482324
O	20.04005852	0.71314647	5.51222889
O	14.29524058	5.85590162	5.74081625
O	29.57636685	5.79364134	5.82659691
O	18.04122288	5.82923607	5.71398429
O	22.09017942	5.99142481	5.54502945
O	14.49353016	2.92022769	6.42976023
O	29.66783900	2.76435998	6.33330648
O	18.18154652	2.73792083	6.42326023
O	21.71328301	2.86034849	6.28661171
O	12.53261774	8.19384767	6.33155994
O	27.74687232	8.16415507	6.48575199
O	16.24051555	7.96061100	6.37158182
O	20.07884880	7.96804773	6.35398932
Ti	8.53466027	9.13516160	4.77632321
Ti	23.80638388	9.30521593	4.74469711
Ti	10.52684194	4.10034445	4.72750327
Ti	25.86605676	3.82417514	4.64302626
Ti	10.44850496	1.21667310	5.45532100
Ti	25.72139172	1.00924419	5.59032010
Ti	8.61765939	6.27124874	5.56847265
Ti	24.15978649	6.44871560	5.43497752
Ti	12.43952197	9.35445290	4.71096735
Ti	27.65912867	9.22251318	4.75020650
Ti	16.26910467	9.10033539	4.63150846
Ti	20.00334232	9.20511181	4.86277483
Ti	14.31157620	4.03404368	4.70809093
Ti	29.53368738	3.90359572	4.75839939
Ti	18.23207344	3.94343579	4.83206560
Ti	22.10402780	4.09449731	4.80194783
Ti	14.33737265	1.15132087	5.50953912
Ti	29.60330118	1.00164668	5.39815961
Ti	18.16942172	1.02286454	5.43245376
Ti	21.94632234	1.15522253	5.45788147
Ti	12.39775540	6.36198393	5.56473229
Ti	27.65037230	6.33461579	5.62930216
Ti	16.17209678	6.27636978	5.52566028
Ti	20.06019359	6.30619626	5.48445261
O	8.54321112	17.74974754	3.93141734
O	8.69465195	28.37921429	4.02567023
O	8.56709999	14.90204159	4.86854974
O	8.65236276	25.44379032	4.58663512
O	8.59897833	11.09904851	5.69528087
O	8.55030856	21.50273813	5.68995292
O	8.67233111	18.52862430	6.29008882
O	8.72768384	28.97759031	6.53655074
O	0.91687245	17.84744565	3.92078964
O	1.12389758	28.30741909	3.93824473
O	4.78803388	17.81747421	3.87512506
O	4.85979354	28.36855652	3.99014853
O	2.98940709	12.62072645	3.97389855
O	2.90169008	22.97446811	3.96613759
O	6.65685318	12.63219976	3.86566449
O	6.66170595	22.98216594	3.89647960
O	2.85111088	20.10775229	4.77935196
O	2.83294393	30.54199051	5.05968690
O	6.69707282	20.09650517	4.84255751
O	6.67974198	30.73689546	4.70933905
O	1.01465235	14.84604170	4.77577351
O	0.95070212	25.24352560	4.82530608
O	4.77985197	14.90544715	4.82291258
O	4.83076438	25.33299544	4.93919385
O	0.93473604	11.12391556	5.60612116
O	0.98600939	21.32178545	6.05832056
O	4.76601658	11.06622543	5.68686791
O	4.72017488	21.49812617	5.66249433
O	2.97247499	16.21689829	5.87669164
O	2.91830825	26.77326750	5.83308917
O	6.67917274	16.35437388	5.71719337
O	6.72141020	26.77538194	5.79428601
O	2.86404238	13.30334624	6.43130553
O	2.71610336	23.76371848	6.33985532
O	6.66339930	13.27786831	6.18068165
O	6.79385408	23.75779722	6.31288905
O	1.04724362	18.55781147	6.43371624
O	0.91902025	28.90141259	6.34902842
O	4.67230200	18.65153890	6.27064868
O	5.03929796	29.08430632	6.43970660
Ti	0.93548367	19.70319356	4.74530792
Ti	0.95593432	30.12292659	4.78155611
Ti	4.74328744	19.76951234	4.63333375
Ti	4.79367787	30.23210784	4.80549496
Ti	2.94613410	14.41945273	4.78725794
Ti	2.90931938	24.87224571	4.85943782
Ti	6.63678256	14.49393841	4.68806054
Ti	6.74855393	24.93713807	4.77714007
Ti	2.80353154	11.52140136	5.51960341
Ti	2.82600052	21.96282570	5.46945323
Ti	6.70964849	11.58800832	5.40828238
Ti	6.63354978	22.01100666	5.41244648
Ti	1.09531581	16.78698230	5.60508661
Ti	0.97751123	27.17612897	5.50759496
Ti	4.84786601	16.83396393	5.49247821
Ti	4.86239016	27.33224466	5.57799220
H	20.80168647	18.88840673	7.12362017
O	23.70676742	17.88727889	3.85725457
O	23.79408033	28.30451882	3.93916066
O	10.51558676	12.62057501	4.00835311
O	10.45038673	23.11479547	3.98916733
O	25.63136114	12.68626394	3.99202112
O	25.59798119	23.00845588	3.87400662
O	10.46318313	20.17178947	4.78391921
O	10.41250345	30.71286654	4.67754716
O	25.83689380	20.19047365	4.81032152
O	25.81563385	30.57578659	4.93659809
O	23.80066171	14.92407572	4.83570116
O	23.84674661	25.27676315	4.71897997
O	23.82963290	10.98287438	5.82726708
O	23.90147181	21.43815648	5.95717392
O	10.44312729	16.40481086	5.79124269
O	10.45496954	26.77705805	5.89450363
O	25.80084428	16.29597095	5.67037190
O	25.85432651	26.71080984	5.71489972
O	10.54961605	13.27493805	6.37376827
O	10.42535060	23.78863710	6.37454979
O	25.86872625	13.35643785	6.43559587
O	25.88341345	23.72738645	6.29504418
O	23.82436689	18.59613210	6.31352067
O	24.06391440	28.93486108	6.38285076
O	12.27774617	17.96128188	3.97423658
O	12.39714380	28.39571076	3.87836337
O	27.60145744	17.83507304	3.92271807
O	27.64539398	28.36404495	3.98306090
O	16.25107702	17.94621726	3.92662794
O	16.30976002	28.27895740	3.85932198
O	20.23095842	17.91854258	3.86152582
O	19.99194405	28.22273394	3.88431346
O	14.61726338	12.76384772	3.99642950
O	14.38152460	23.18222475	3.98595624
O	29.79381816	12.50641195	3.83692673
O	29.68354906	22.94177299	3.93604387
O	18.17048589	12.46582389	3.95131259
O	18.29659720	23.11728175	3.96689780
O	21.98718298	12.67123006	3.94559876
O	22.08745161	23.00918589	3.94685955
O	14.28563106	20.34610917	4.79122637
O	14.26235879	30.85700462	4.77262448
O	29.49859444	19.97294981	4.98169536
O	29.61410328	30.69548882	4.64177316
O	18.11566344	20.25272585	4.68878593
O	18.15963857	30.66080520	4.89571625
O	21.95319502	20.32584524	4.56690505
O	21.99265957	30.61306494	4.89980802
O	12.39982786	15.09479292	4.62593136
O	12.36060383	25.46684310	4.77736986
O	27.72198379	14.72330693	4.66118801
O	27.66458018	25.41652783	4.64496724
O	16.30402679	14.95653392	5.03160820
O	16.23216478	25.42217510	4.70433043
O	19.86478364	15.07325951	4.85830191
O	20.05716209	25.29594597	4.91780441
O	12.44373204	11.18640860	5.67123307
O	12.39591483	21.63181036	5.76434252
O	27.66471703	11.11391892	5.55627793
O	27.67391010	21.37762990	5.84422855
O	16.22797167	11.56394364	6.05610362
O	16.22059798	21.60058185	5.79215331
O	20.02733192	11.08652347	5.65955933
O	20.03159541	21.59262364	5.78103337
O	14.34610063	16.56516076	5.08309733
O	14.26972097	26.93059643	5.52926471
O	29.63687254	16.27601011	5.83636929
O	29.56438304	26.79919939	5.66302061
O	18.06651158	16.91250736	5.89549376
O	18.13808436	26.75805688	5.69638728
O	21.94133912	16.34191562	5.80185094
O	21.98024469	26.80471318	5.68428853
O	14.06598409	13.48179466	6.28405479
O	14.18337349	23.98234509	6.41143863
O	29.56716806	13.30380140	6.31790521
O	29.45231876	23.81516209	6.34749668
O	18.33675163	13.34638251	6.29963801
O	18.13616264	23.84176899	6.37989854
O	21.69512113	13.41340205	6.31175516
O	22.04150177	23.77559862	6.31725873
O	12.61653976	18.73180170	6.33883630
O	12.42832333	29.13345553	6.40499770
O	27.63494501	18.43713744	6.31255001
O	27.72579858	28.88260129	6.50670916
O	16.09191221	18.81583064	6.32978441
O	16.14053259	29.10882777	6.26169176
O	20.33597627	18.69840469	6.25697607
O	19.93071434	28.98909987	6.31257844
Ti	8.62533349	19.68342576	4.76625368
Ti	8.57467069	30.18347055	4.91623725
Ti	23.89286625	19.73768970	4.70014009
Ti	23.96643078	30.10211052	4.86617612
Ti	10.51712753	14.48763528	4.79536900
Ti	10.45850932	24.98122882	4.78101306
Ti	25.72696706	14.58599533	4.80600740
Ti	25.84253156	24.79629209	4.67551889
Ti	10.46635374	11.46629909	5.51204985
Ti	10.36216918	22.07902315	5.50580966
Ti	25.69152936	11.57903661	5.46371152
Ti	25.75033269	21.91968171	5.59441238
Ti	8.54363554	16.79114102	5.55424816
Ti	8.65169867	27.23887451	5.56494120
Ti	23.82214581	16.80019427	5.42280566
Ti	23.89577288	27.17329535	5.44792513
Ti	12.36602290	19.81796345	4.82363416
Ti	12.46285548	30.29615272	4.78583539
Ti	27.65725125	19.63716166	4.72119183
Ti	27.75447955	30.13538029	4.81357149
Ti	16.12307291	19.86004163	4.71920853
Ti	16.23725975	30.25538447	4.73692423
Ti	20.08048660	19.83584810	4.68870092
Ti	20.02174808	30.16091692	4.66954278
Ti	14.33023457	14.58796273	4.76423248
Ti	14.27709396	25.04348069	4.75580559
Ti	29.64092516	14.45546972	4.68095817
Ti	29.61053531	24.94187746	4.80283803
Ti	18.06683491	14.30689079	4.63162292
Ti	18.10020932	25.00018447	4.79914120
Ti	21.92162591	14.51643664	4.67049299
Ti	21.93215033	24.90790156	4.73066897
Ti	14.36442764	11.70269242	5.56531830
Ti	14.29149193	22.12018522	5.64295051
Ti	29.48308177	11.57655324	5.45017623
Ti	29.55817486	22.00678660	5.52191807
Ti	18.15408372	11.58673307	5.61368800
Ti	18.18224005	22.09377755	5.43232672
Ti	21.94563931	11.55681398	5.43185652
Ti	22.00276388	21.99158240	5.58013234
Ti	12.46965630	16.84986855	5.52872868
Ti	12.34591750	27.37230455	5.54443277
Ti	27.73187674	16.74082652	5.46872192
Ti	27.62307140	27.25126592	5.45315613
Ti	16.19335937	17.01452561	5.74642435
Ti	16.23227077	27.33856702	5.39409713
Ti	20.03594132	16.99035034	5.49332025
Ti	20.07463112	27.17893414	5.52687557
H	16.27464105	15.98241939	9.97631911
H	12.01952715	15.34656222	9.30629331
O	13.12612136	16.13040543	7.26913951
O	15.42860860	16.45071228	7.42985074
C	14.24745569	16.15110196	7.94541647
C	14.20040155	15.72023534	9.39646099
C	15.23092417	15.72865787	10.36307160
C	12.90898017	15.41242090	9.97429309
N	12.22013319	13.48306543	19.95627667
N	14.70600103	10.88826051	21.89995519
N	14.47242224	11.57656027	19.11906658
N	12.34130197	12.57295461	22.72675742
C	13.69108520	14.44397624	13.61444163
C	14.46367723	14.95132082	14.65734890
C	17.78977430	6.67871450	18.76494788
C	13.28285464	9.76053793	27.70551390
C	9.09111320	17.48272551	22.81989923
C	14.30776654	14.55586027	15.98501555
C	13.21711485	13.75535277	16.30561770
C	17.11215163	8.94944111	19.59492140
C	14.05739167	10.84794811	25.60298419
C	9.65480634	15.19007814	22.18447072
C	12.35536857	13.29446762	15.31760173
C	12.58336863	13.65319903	13.98579846
C	19.47426203	8.30141216	19.21480768
C	15.32329932	11.05170091	27.65313489
C	7.46272964	15.73651502	23.01818117
C	13.21336816	13.24198352	17.74256869
C	16.04928133	9.93726798	19.98652347
C	13.87184864	11.23108950	24.19918251
C	10.74913752	14.17966705	21.85704339
C	14.22643300	12.27121451	17.94714808
C	15.49934599	10.68317314	18.92162149
C	12.73098397	12.06595346	23.94381717
C	11.34808834	13.49559857	22.91839623
C	15.05480067	11.70935425	16.95786803
C	15.85858954	10.76005346	17.50001106
C	11.88750782	12.68861541	24.94724049
C	11.06260003	13.58193096	24.33611179
C	12.17507285	13.68121937	18.59494331
C	15.72698047	10.09122601	21.35965862
C	14.79189147	10.70636390	23.26287002
C	11.10734356	14.10880886	20.49435390
C	11.09076184	14.51502956	18.22263070
C	16.30621196	9.31245038	22.43232075
C	15.73085999	9.69662885	23.60966662
C	10.42317194	14.83600841	19.42899716
H	10.95014717	15.03473091	17.32124061
H	17.09338003	8.52037198	22.21864372
H	15.88623302	9.41669545	24.61952141
H	9.55065025	15.48612446	19.67924994
H	15.06044709	12.10120803	15.89825528
H	16.56579656	9.99622077	17.07732296
H	12.07690277	12.64468545	26.06827703
H	10.35797538	14.31482208	24.76497156
H	11.94301543	13.31584315	13.17986003
H	20.50077557	8.62686025	19.03542604
H	16.18328303	11.47954724	28.17203335
H	6.37741009	15.43252455	23.11786376
H	11.50947760	12.65715485	15.67278587
H	15.05414742	14.80001736	16.83161412
H	15.26897118	15.66966963	14.34320800
H	17.43437614	5.70135022	18.36425960
H	12.63360483	9.01600629	28.20135106
H	9.38199323	18.53515236	22.82019926
H	13.96024577	11.66171385	19.99792937
H	12.85367059	12.38134988	21.86083705
C	20.11605911	6.07662932	18.01474917
H	20.57908445	5.36249533	18.70723426
H	20.94684683	6.62200967	17.58367609
H	19.74017055	5.59963717	17.11332937
C	15.36587445	7.28108018	19.32177701
H	15.11648879	6.61624339	18.51992536
H	14.70493030	8.13872258	19.15927922
H	15.16531904	6.77946716	20.29550372
C	19.05338571	10.56860475	19.87410455
H	18.45694812	11.07297722	20.63674935
H	19.03822333	11.19702339	19.00108065
H	20.05122736	10.45751581	20.22580193
C	7.86817222	13.38781023	22.28533566
H	8.37853396	12.68262987	22.96725636
H	8.08873369	13.05174835	21.25276968
H	6.77640865	13.22280845	22.39548213
C	11.31196401	17.06446077	21.98719632
H	11.66114708	17.76249416	22.82049463
H	11.31361820	17.62661851	21.07917408
H	12.10454727	16.28771346	21.90631820
C	6.81665935	18.02262044	23.91918897
H	5.78976726	17.88967244	23.35769270
H	7.09071635	19.11526380	23.89757880
H	6.66153923	17.81030109	24.95696242
C	16.43412849	11.98948653	25.64687389
H	17.26789014	11.31586617	25.52120525
H	16.86929343	12.80149732	26.25251285
H	16.22904117	12.29869230	24.60822618
C	11.88443404	9.61198967	25.65093086
H	11.57506916	8.67241406	26.09713654
H	11.96192672	9.53752311	24.54961020
H	11.05238669	10.28263125	25.92502046
C	14.68073110	9.78888204	29.79158597
H	13.80643215	9.21569350	30.18229537
H	14.80952906	10.65010386	30.42400402
H	15.54350246	9.14671727	29.88026438
C	19.16503367	7.02784604	18.68228940
C	16.80728600	7.61263203	19.22095149
C	18.51620271	9.22513986	19.54415774
C	15.23328706	11.28309502	26.29769865
C	13.10378988	10.11264506	26.32447318
C	14.39163901	10.24931513	28.38148786
C	8.32475026	14.79090114	22.46521538
C	9.94959889	16.53355454	22.26890275
C	7.82542004	17.09615001	23.26296325
H	16.02236324	15.17032097	12.43806089
H	11.80655244	14.84058622	11.85975598
C	13.90005587	14.86900093	12.20710502
C	15.10899391	15.27902888	11.70598365
C	12.76498145	15.03722199	11.33853699

O Ti H C N 0
6-31G*
****

